#------------------------------------------------------------------------------
#                  GEOS-Chem Global Chemical Transport Model                  !
#------------------------------------------------------------------------------
#BOP
#
# !MODULE: HEMCO_Diagn.rc 
#
# !DESCRIPTION: Configuration file for netCDF diagnostic output from HEMCO.
#\\
#\\
# !REMARKS:
#  Customized for the Transport Tracers simulation.
#
# !REVISION HISTORY:
#  13 Feb 2018 - E. Lundgren - Initial version
#EOP
#------------------------------------------------------------------------------
#BOC
# Name               Spec              ExtNr  Cat Hier Dim OutUnit       LongName

###############################################################################
#####  Rn222 emissions                                                    #####
###############################################################################
EmisRn_Soil          Rn222             100    -1  -1   2   kg/m2/s

###############################################################################
#####  Be emissions                                                       #####
###############################################################################
EmisBe7_Cosmic       Be7               100    -1  -1   3   kg/m2/s
EmisBe7s_Cosmic      Be7s              100    -1  -1   3   kg/m2/s
EmisBe10_Cosmic      Be10              100    -1  -1   3   kg/m2/s
EmisBe10s_Cosmic     Be10s             100    -1  -1   3   kg/m2/s

###############################################################################
#####  Transport tracer emissions                                         #####
###############################################################################
EmisSF6              SF6                -1    -1  -1   2   kg/m2/s
EmisCH3I             CH3I               -1    -1  -1   2   kg/m2/s
EmisCO_25            CO_25              -1    -1  -1   2   kg/m2/s
EmisCO_50            CO_50              -1    -1  -1   2   kg/m2/s

#EOC