#
# This the GEOS-CHEM Grid Component Registry. It defines Import,
# Internal and Export states for this component as well as
# any
#
# !REVISION HISTORY:
#  16Aug2006  da Silva   First Version
#  30Jun2012  Nielsen    For Ganymed
#  10Oct2012  Yantosca   Updated for GEOS-Chem v9-01-03, which has new
#                        Bromine compounds as advected tracers & species
#  25Sep2013  Keller     Updated for GEOS-Chem v9-02l (NOx and Ox not lumped anymore, Isoprene                         update) 
# See git history for rest of revision history
#
# -----------------------------------------------------------------

# GCHP only:
#  COMP_NAME: GCHPchem
# GEOS-5 has different grid comp name:
  COMP_NAME: GEOSCHEMCHEM
#---

# Only change the Registry version when major structural changes
# occurs, not changes in content
# --------------------------------------------------------------
  MAPL_REGISTRY_VERSION: 1.00

#				------------
#				Import State
#				------------

<ImportSpec name="GEOSCHEMCHEM", cols="short_name,units,dims,vlocation,stat,refresh_interval,averaging_interval,num_subtiles,default,long_name">
# -------------------|-------------|-----|---|----|---|---|-----|------|----| --------------------------
#  Short	     |  	   |	 | V |Item|Intervl| Sub | Def  | No | 	Long
#  Name 	     |   Units     | Dim |Loc|Type| R | A |Tiles| ault | Rst| 	Name
# -------------------|-------------|-----|---|----|---|---|-----|------|----| --------------------------
# NOTE: GCHP does not have column No Rst
#======================
# Both GCHP and GEOS-5 (but needed to add No Rst column to GCHP entries)
#======================
  AIRDENS            |   kg/m3     | xyz | C |    |   |   |	|      |    | air_density
  AREA               |     m2	   | xy  |   |    |   |   |	|      |    | agrid_cell_area
  FRLAKE             |     1	   | xy  |   |    |   |   |	|      |    | fraction_of_lake
  FRLAND             |     1	   | xy  |   |    |   |   |	|      |    | fraction_of_land
  FRLANDICE          |     1	   | xy  |   |    |   |   |	|      |    | fraction_of_land_ice
  FROCEAN            |     1	   | xy  |   |    |   |   |	|      |    | fraction_of_ocean
  LAI                |     1	   | xy  |   |    |   |   |	|      |    | leaf area index
  SNOMAS             |   kg/m2     | xy  |   |    |   |   |	|      |    | snow_mass
  TAUCLI             |     1	   | xyz | C |    |   |   |	|      |    | optical_thickness_for_ice_clouds
  TAUCLW             |     1	   | xyz | C |    |   |   |	|      |    | optical_thickness_for_liquid_clouds 
  TROPP              |    hPa	   | xy  |   |    |   |   |	|      |    | tropopause_pressure_based_on_blended_estimate
  TS                 |     K	   | xy  |   |    |   |   |	|      |    | surface_skin_temperature
  U10M               |    m/s	   | xy  |   |    |   |   |	|      |    | 10-meter_eastward_wind
  USTAR              |    m/s	   | xy  |   |    |   |   |	|      |    | surface_velocity_scale
  V10M               |    m/s	   | xy  |   |    |   |   |	|      |    | 10-meter_northward_wind
  OMEGA              |  Pas-1      | xyz | C |    |   |   |     |      |    | vertical_pressure_velocity
#==============
# GEOS-5 only:
#==============
  ALBVF              |     1	   | xy  |   |    |   |   |	|      |    | surface_albedo_for_visible_diffuse
  CLDTT              |     1	   | xy  |   |    |   |   |	|      |    | total_cloud_area_fraction
  ASNOW              |     1	   | xy  |   |    |   |   |	|      |    | fractional_area_of_land_snowcover
  WET1               |     1	   | xy  |   |    |   |   |	|      |    | surface_soil_wetness
  WET2               |     1	   | xy  |   |    |   |   |	|      |    | root_soil_wetness
  SH                 |    W/m2     | xy  |   |    |   |   |	|      |    | sensible_heat_flux_from_turbulence
  LHFX               |    W/m2     | xy  |   |    |   |   |	|      |    | latent_heat_flux_from_turbulence 
  ITY                |     1	   | xy  |   |    |   |   |	|      |    | land type index
  DRPAR              |    W/m2     | xy  |   |    |   |   |	|      |    | surface_downwelling_par_beam_flux
  DFPAR              |    W/m2     | xy  |   |    |   |   |	|      |    | surface_downwelling_par_diffuse_flux
  ZPBL               |     m	   | xy  |   |    |   |   |	|      |    | planetary_boundary_layer_height
  PPBL               |     Pa      | xy  |   |    |   |   |	|      |    | pbltop_pressure
  PS                 |     Pa	   | xy  |   |    |   |   |	|      |    | surface_ressure
  SWNDSRF            |    W/m2     | xy  |   |    |   |   |	|      |    | surface_net_downward_shortwave_flux
  SNOWDP             |    m        | xy  |   |    |   |   |	|      |    | snow_depth
  T2M                |     K	   | xy  |   |    |   |   |	|      |    | 2-meter-air_temperature
  T10M               |     K	   | xy  |   |    |   |   |	|      |    | 10-meter-air_temperature
  Z0H                |     m	   | xy  |   |    |   |   |	|      |    | surface_roughness_for_heat
  ZLE                |     m	   | xyz | E |    |   |   |	|      |    | geopotential_height
  FCLD               |     1	   | xyz | C |    |   |   |	|      |    | cloud_fraction_for_radiation
  CNV_MFC            |  kg/m2/s    | xyz | E |    |   |   |	|      |    | cumulative_mass_flux
  CNV_CVW            |   hPa/s     | xyz | C |    |   |   |	|      |    | updraft_vertical_velocity
  DQIDT              |  kg/kg/s    | xyz | C |    |   |   |	|      |    | total_ice_water_tendency_due_to_moist
  DQLDT              |  kg/kg/s    | xyz | C |    |   |   |	|      |    | total_liq_water_tendency_due_to_moist
  DQDT               |  kg/kg/s    | xyz | C |    |   |   |	|      |    | specific_humidity_tendency_due_to_moist
  DQRL               |  kg/kg/s    | xyz | C |    |   |   |	|      |    | large_scale_rainwater_source 
  PFL_LSAN           |  kg/m2/s    | xyz | E |    |   |   |	|      |    | 3D_flux_of_liquid_nonconvective_precipitation 
  PFI_LSAN           |  kg/m2/s    | xyz | E |    |   |   |	|      |    | 3D_flux_of_ice_nonconvective_precipitation 
  CNV_MFD            |  kg/m2/s    | xyz | C |    |   |   |	|      |    | detraining_mass_flux
  PLE                |     Pa	   | xyz | E |    |   |   |	|      |    | air_pressure_layer_interfaces
  DELP               |     Pa	   | xyz | C |    |   |   |	|      |    | pressure_thickness 
  RH2                |     1	   | xyz | C |    |   |   |	|      |    | Rel_Hum_after_moist
  Q                  |   kg/kg     | xyz | C |    |   |   |	|      |    | specific_humidity
  QITOT              |   kg/kg     | xyz | C |    |   |   |	|      |    | ice mixing ratio
  QLTOT              |   kg/kg     | xyz | C |    |   |   |	|      |    | water mixing ratio
  T                  |     K	   | xyz | C |    |   |   |	|      |    | air_temperature
  REV_CN             |  kg/kg/s    | xyz | C |    |   |   |	|      |    | evaporation_of_convective_precipitation
  REV_LS             |  kg/kg/s    | xyz | C |    |   |   |	|      |    | evaporation_of_nonanvil_large_scale_precipitation
  REV_AN             |  kg/kg/s    | xyz | C |    |   |   |	|      |    | evaporation_of_anvil_precipitation
  DQRC               |  kg/kg/s    | xyz | C |    |   |   |	|      |    | convective_rainwater_source 
  PFI_CN             |  kg/m2/s    | xyz | E |    |   |   |	|      |    | 3D_flux_of_ice_convective_precipitation
  PFL_CN             |  kg/m2/s    | xyz | E |    |   |   |	|      |    | 3D_flux_of_liquid_convective_precipitation
  U                  |  ms-1       | xyz | C |    |   |   |     |      |    | eastward_wind 
  V                  |  ms-1       | xyz | C |    |   |   |     |      |    | northward_wind
  CNV_FRC            |      1      | xy  |   |    |   |   |     |      | x  | convective_fraction 
  Q10M               |   kg/kg     | xy  |   |    |   |   |	|      |    | 10m_specific_humidity
  Q2M                |   kg/kg     | xy  |   |    |   |   |	|      |    | 2m_specific_humidity
  XLAIMULTI          | cm2_cm-2    | xyz | E |    |   |   |	|      | x  ! LAI_by_
#===========
# GCHP only:
#===========
#  ALBD               |     1	   | xy  |   |    |   |   |	|      | surface_albedo_for_visible_diffuse
#  CLDF               |     1	   | xyz | C |    |   |   |	|      | 
#  CLDFRC             |     1	   | xy  |   |    |   |   |	|      | 
#  CMFMC              |     1	   | xyz | E |    |   |   |	|      | 
#  DQRCU              |     1	   | xyz | C |    |   |   |	|      | 
#  DQRLSAN            |     1	   | xyz | C |    |   |   |	|      | 
## DryPLE             |     1      | xyz | E |    |   |   |     |      |
#  DTRAIN             |     1	   | xyz | C |    |   |   |	|      | 
#  EFLUX              |     1	   | xy  |   |    |   |   |	|      | 
#  EVAP               |     1	   | xy  |   |    |   |   |	|      | 
#  FRSEAICE           |     1	   | xy  |   |    |   |   |	|      | 
#  FRSNO              |     1	   | xy  |   |    |   |   |	|      | 
#  GRN                |     1	   | xy  |   |    |   |   |	|      | 
#  GWETROOT           |     1	   | xy  |   |    |   |   |	|      | 
#  GWETTOP            |     1	   | xy  |   |    |   |   |	|      | 
#  HFLUX              |     1	   | xy  |   |    |   |   |	|      | 
#  OPTDEP             |     1	   | xyz | C |    |   |   |	|      | 
#  PARDF              |     1	   | xy  |   |    |   |   |	|      | 
#  PARDR              |     1	   | xy  |   |    |   |   |	|      | 
#  PBLH               |     1	   | xy  |   |    |   |   |	|      | 
#  PFICU              |     1	   | xyz | E |    |   |   |	|      | 
#  PFILSAN            |     1	   | xyz | E |    |   |   |	|      | 
#  PFLCU              |     1	   | xyz | E |    |   |   |	|      | 
#  PFLLSAN            |     1	   | xyz | E |    |   |   |	|      | 
#  PHIS               |     1	   | xy  |   |    |   |   |	|      | 
## PLE                |     1      | xyz | E |    |   |   |     |      |
#  PS1                |     1	   | xy  | E |    |   |   |	|      | 
#  PS2                |     1	   | xy  | E |    |   |   |	|      | 
#  QI                 |     1	   | xyz | C |    |   |   |	|      | 
#  QL                 |     1	   | xyz | C |    |   |   |	|      | 
#  RADLWG             |     1	   | xy  |   |    |   |   |	|      | 
#  RADSWG             |     1	   | xy  |   |    |   |   |	|      | 
#  REEVAPCN           |     1	   | xyz | C |    |   |   |	|      | 
#  REEVAPLS           |     1	   | xyz | C |    |   |   |	|      | 
#  RH                 |     1	   | xyz | C |    |   |   |	|      | 
#  SEAICE00           |     1	   | xy  |   |    |   |   |	|      | 
#  SEAICE10           |     1	   | xy  |   |    |   |   |	|      | 
#  SEAICE20           |     1	   | xy  |   |    |   |   |	|      | 
#  SEAICE30           |     1	   | xy  |   |    |   |   |	|      | 
#  SEAICE40           |     1	   | xy  |   |    |   |   |	|      | 
#  SEAICE50           |     1	   | xy  |   |    |   |   |	|      | 
#  SEAICE60           |     1	   | xy  |   |    |   |   |	|      | 
#  SEAICE70           |     1	   | xy  |   |    |   |   |	|      | 
#  SEAICE80           |     1	   | xy  |   |    |   |   |	|      | 
#  SEAICE90           |     1	   | xy  |   |    |   |   |	|      | 
#  SLP                |     1	   | xy  |   |    |   |   |	|      | 
#  SNODP              |     1	   | xy  |   |    |   |   |	|      | 
#  SPHU1              |     1	   | xyz | C |    |   |   |	|      | 
#  SPHU2              |     1	   | xyz | C |    |   |   |	|      | 
#  TMPU1              |     1	   | xyz | C |    |   |   |	|      | 
#  TMPU2              |     1	   | xyz | C |    |   |   |	|      | 
#  TO3                |     1	   | xy  |   |    |   |   |	|      | 
#  TSKIN              |     1	   | xy  |   |    |   |   |	|      | 
#  ULL                |     1	   | xyz | C |    |   |   |	|      | 
#  VLL                |     1	   | xyz | C |    |   |   |	|      | 
#  Z0                 |     1	   | xy  |   |    |   |   |	|      | 
# -------------------|-------------|-----|---|----|---|---|-----|------|--------------------------
</ImportSpec>

#				------------
#				Export State
#				------------

<ExportSpec name="GEOSCHEMCHEM", cols="short_name,units,dims,vlocation,stat,refresh_interval,averaging_interval,num_subtiles,long_name">
# --------------------------------|----------------|-----|---|----|---|---|-----|---------------------------------
#  Short	                  |		   |     | V |Item|Intervl| Sub |	     Long
#  Name 	                  |   Units	   | Dim |Loc|Type| R | A |Tiles|	     Name
# --------------------------------|----------------|-----|---|----|---|---|-----|---------------------------------
#======================
# Both GCHP and GEOS-5:
#======================
#  O3PPMV	                  | ppmv	   | xyz | C |    |   |   |	| ozone_volume_mixing_ratio_in_ppm
#  OX_TEND	                  | kg kg-1 s-1    | xyz | C |    |   |   |	| tendency_of_odd_oxygen_mixing_ratio_due_to_chemistry
#  H2O_TEND                       | kg kg-1 s-1    | xyz | C |    |   |   |     | Tendency_of_water_vapor_mixing_ratio_due_to_chemistry
#===========	                  
# GCHP only:	                  
#===========	                  
## OX                             | mol mol-1      | xyz | C |    |   |   |     | ozone_volume_mixing_ratio
#  O3_EXP                         | kg kg-1        | xyz | C |    |   |   |     | ozone_mass_mixing_ratio
#  DEPVEL_O3                      |                | xy  |   |    |   |   |     |
#  DEPFLUX_O3                     |                | xy  |   |    |   |   |     |
#  WETDEP_LOSS_H2O2               |                | xy  |   |    |   |   |     |
#=============
# GEOS-5 only:
#=============
  SOILNO_PULSE                    | 1              | xy  |   |    |   |   |     | Soilnox_pulse 
  LIGHTNING_TOTAL_FLASHRATE       | 1 min-1 km-2   | xy  |   |    |   |   |     | Lightning_flashrate
  LIGHTNING_INTRACLOUD_FLASHRATE  | 1 min-1 km-2   | xy  |   |    |   |   |     | Lightning_intracloud_flashrate
  LIGHTNING_CLOUDGROUND_FLASHRATE | 1 min-1 km-2   | xy  |   |    |   |   |     | Lightning_cloudground_flashrate
  LIGHTNING_CLOUD_TOP             | 1              | xy  |   |    |   |   |     | Lightning_convective_cloud_top_level
  CH4_EMIS_RICE                   | kg m-2 s-1     | xy  |   |    |   |   |     | CH4_emis_rice
  CH4_EMIS_WETLAND                | kg m-2 s-1     | xy  |   |    |   |   |     | CH4_emis_wetland
# --------------------------------|----------------|-----|---|----|---|---|-----|---------------------------------
</ExportSpec>
#                               --------------
#                               Internal State
#                               --------------
#
# Note: 1) For friendlies, use "D" for dynamics, "T" for turbulence, "C" for convection, S=self (adds to export); leave blank otherwise
#       2) If quantity requires no restart, put an 'x' in the No Rst column
#       3) RO = Alkoxy radical, RO2 = Organic peroxy radical
<InternalSpec name="GEOSCHEMCHEM", cols="short_name,units,dims,vlocation,stat,refresh_interval,averaging_interval,num_subtiles,default,norestart,halowidth,friendlyto,long_name">
# ----------------|------------|-----|---|----|---|---|-----|------|----|----|---------|---------------------------------
#  Short          |            |     | V |Item|Intervl| Sub | Def  | No | Ha | Friends |            Long
#  Name           |   Units    | Dim |Loc|Type| R | A |Tiles| ault | Rst| lo |         |            Name
# ----------------|------------|-----|---|----|---|---|-----|------|----|----|---------|---------------------------------
#======================
# Both GCHP and GEOS-5:
#======================
 GCCTROPP         |    Pa      | xy  |   |    |   |   |     |      |    |    | S       | tropopause_pressure_used_in_GEOS-Chem
#================================================================================================
# Both GCHP and GEOS-5, but GEOS-5 does not have default values specified so commenting out GCHP:
#================================================================================================
#STATE_PSC        | 1          | xyz | C |    |   |   |     |0.0   |    |    | S       | polar_stratospheric_clouds
 STATE_PSC        | 1          | xyz | C |    |   |   |     |      |    |    | S       | polar_stratospheric_clouds
 DryDepNitrogen   | cm-2s-1    | xy  |   |    |   |   |     |      |    |    | S       | dry_deposited_nitrogen
 WetDepNitrogen   | cm-2s-1    | xy  |   |    |   |   |     |      |    |    | S       | wet_deposited_nitrogen
#PFACTOR          | 1          | xy  |   |    |   |   |     |1.0   |    |    | S       | soilnox_pfactor_restart
 PFACTOR          | 1          | xy  |   |    |   |   |     |      |    |    | S       | soilnox_pfactor_restart 
#DRYPERIOD        | 1          | xy  |   |    |   |   |     |0.0   |    |    | S       | soilnox_dryperiod_restart
 DRYPERIOD        | 1          | xy  |   |    |   |   |     |      |    |    | S       | soilnox_dryperiod_restart
#GWET_PREV        | 1          | xy  |   |    |   |   |     |0.0   |    |    | S       | soilnox_gwet_prev_restart
 GWET_PREV        | 1          | xy  |   |    |   |   |     |      |    |    | S       | soilnox_gwet_prev_restart
#DEP_RESERVOIR    | kg m-3     | xy  |   |    |   |   |     |1e-4  |    |    | S       | soilnox_dep_reservoir_restart
 DEP_RESERVOIR    | kg m-3     | xy  |   |    |   |   |     |      |    |    | S       | soilnox_dep_reservoir_restart
#T_DAVG           | 1          | xy  |   |    |   |   |     |273.1 |    |    | S       | megan_t_davg_restart
 T_DAVG           | K          | xy  |   |    |   |   |     |      |    |    | S       | megan_t_davg_restart
#T_PREVDAY        | 1          | xy  |   |    |   |   |     |273.1 |    |    | S       | megan_t_prevday_restart
 T_PREVDAY        | K          | xy  |   |    |   |   |     |      |    |    | S       | megan_t_prevday_restart
#LAI_PREVDAY      | 1          | xy  |   |    |   |   |     |      |    |    | S       | megan_lai_prevday_restart
 LAI_PREVDAY      | 1          | xy  |   |    |   |   |     |0.0   |    |    | S       | megan_lai_prevday_restart
#PARDR_DAVG       | Wm-2       | xy  |   |    |   |   |     |      |    |    | S       | megan_pardr_davg_restart
 PARDR_DAVG       | W/m2       | xy  |   |    |   |   |     |0.0   |    |    | S       | megan_pardr_davg_restart
#PARDF_DAVG       | Wm-2       | xy  |   |    |   |   |     |      |    |    | S       | megan_pardf_davg_restart
 PARDF_DAVG       | W/m2       | xy  |   |    |   |   |     |0.0   |    |    | S       | megan_pardf_davg_restart
#================
# GEOS-5 only:
#================
 H2O2AfterChem    |   vv-1     | xyz | C |    |   |   |     |      |    |    | S       | soluble_fraction_H2O2
 SO2AfterChem     |   vv-1     | xyz | C |    |   |   |     |      |    |    | S       | soluble_fraction_SO2
 KPPHvalue        |   1        | xyz | C |    |   |   |     |      |    |    | S       | HSAVE_for_KPP 
 SESQ_CARBDENS    | kgCm-3     | xyz | C |    |   |   |     |      |    |    | S       | sesquiterpene_conc_restart
# Iso_Hplus_coarse | molL-1     | xyz | C |    |   |   |     |0.0   |    |    | S       | Isorropia_H+_concentration_coarse
# Iso_Hplus_fine   | molL-1     | xyz | C |    |   |   |     |0.0   |    |    | S       | Isorropia_H+_concentration_fine
# Iso_sulfate      | molL-1     | xyz | C |    |   |   |     |0.0   |    |    | S       | Isorropia_sulfate_concentratio
# Iso_nitrate_coarse | molL-1     | xyz | C |    |   |   |     |0.0   |    |    | S       | Isorropia_Na+_concentration_coarse
# Iso_nitrate_fine | molL-1     | xyz | C |    |   |   |     |0.0   |    |    | S       | Isorropia_Na+_concentration_fine
# Iso_bisulfate    | molL-1     | xyz | C |    |   |   |     |0.0   |    |    | S       | Isorropia_bisulfate_concentration
### the following are not needed
# Iso_acidpur      | molL-1     | xyz | C |    |   |   |     |0.0   |    |    | S       | Isorropia_acid
# Iso_pH           |   1        | xyz | C |    |   |   |     |0.0   |    |    | S       | Isorropia_aerosol_pH
# Iso_water        | ugm-3      | xyz | C |    |   |   |     |0.0   |    |    | S       | Isorropia_aerosol_water_concentration
# ----------------|------------|-----|---|----|---|---|-----|------|----|----|---------|---------------------------------
</InternalSpec>
