48                                                                         
===========================================================================
                                                                           
                  KPP Standalone Atmospheric Chemical State                
File Description:                                                          
This file contains model output of the atmospheric chemical state          
as simulated by the GEOS-Chem chemistry module in a 3D setting.            
Each grid cell represents the chemical state of an individual location,    
suitable for input into a separate KPP Standalone program which will       
replicate the chemical evolution of that grid cell for mechanism analysis. 
Note that the KPP Standalone will only use concentrations, rate constants, 
and KPP-specific fields. All other fields are for reference. The first line
contains the number of lines in this header. If wanting to use this output 
for other analysis, a Python class to read these fields is available by    
request, contact Obin Sturm (psturm@usc.edu).                              
                                                                           
Generated by the GEOS-Chem Model                                           
       (https://geos-chem.org/)                                            
Using the KPP Standalone Interface                                         
github.com/GEOS-ESM/geos-chem/tree/feature/psturm/kpp_standalone_interface 
     With contributions from:                                              
        Obin Sturm (psturm@usc.edu)                                        
        Christoph Keller                                                   
        Michael Long                                                       
        Sam Silva                                                          
                                                                           
Meteorological and general grid cell metadata    
Location:                                        Beijing
Timestamp:                                       2020/01/06 13:45
Longitude (degrees):                                117.0185
Latitude (degrees):                                  39.8364
GEOS-Chem Vertical Level:                             1
Pressure (hPa):                                    1009.8350
Temperature (K):                                      275.90
Dry air density (molec/cm3):                      0.2646E+20
Water vapor mixing ratio (vol H2O/vol dry air):   0.3956E-02
Cloud fraction:                                   0.0000E+00
Cosine of solar zenith angle:                    -0.8279E+00
KPP Integrator-specific parameters               
Init KPP Timestep (seconds):                        268.3002
Exit KPP Timestep (seconds):                         32.4352
Chemistry operator timestep (seconds):              900.0000
Number of internal timesteps:                        28
CSV data of full chemical state, including species concentrations,    
rate constants (R) and instantaneous reaction rates (A).              
All concentration units are in molecules/cc and rates in molec/cc/s.  
                                                                           
===========================================================================
Name,   Value                                                              
CH2I2,   0.5229637490161687E+06
CH2IBr,   0.5401741649323440E+06
CH2ICl,   0.2389579494513276E+07
AERI,   0.1144044191044774E+12
AONITA,   0.2224684129917660E+10
BUTDI,   0.0000000000000000E+00
CO2,   0.7331505456875255E+16
INDIOL,   0.3917484033613435E+10
ISALA,   0.1340074753973859E+09
ISALC,   0.2656091737594891E+08
LBRO2H,   0.1110359179531490E+11
LBRO2N,   0.1007852162653296E+13
BRO2,   0.2641206128574977E-01
LISOPOH,   0.0000000000000000E+00
LISOPNO3,   0.0000000000000000E+00
LNRO2H,   0.0000000000000000E+00
LNRO2N,   0.0000000000000000E+00
NRO2,   0.0000000000000000E+00
NAP,   0.0000000000000000E+00
LTRO2H,   0.6236742963112886E+11
LTRO2N,   0.8070360765686937E+13
TRO2,   0.2093893768543299E+00
LVOCOA,   0.6865493588792447E+06
LVOC,   0.3860877065010954E-12
LXRO2H,   0.1045239082629581E+12
LXRO2N,   0.1788823543222465E+14
XRO2,   0.4720263884380698E+00
MSA,   0.2234785005701510E+08
SO4s,   0.7764798777941527E+04
SOAGX,   0.4090001577327538E+10
SOAIE,   0.2203718566890857E+08
PH2SO4,   0.0000000000000000E+00
PSO4AQ,   0.0000000000000000E+00
POx,   0.0000000000000000E+00
LOx,   0.0000000000000000E+00
PCO,   0.0000000000000000E+00
LCO,   0.0000000000000000E+00
PSO4,   0.0000000000000000E+00
LCH4,   0.0000000000000000E+00
PH2O2,   0.0000000000000000E+00
FURA,   0.0000000000000000E+00
I2O4,   0.1167034727981632E+03
CH3CCl3,   0.3228183624351780E+08
I2O2,   0.2324264092827573E+01
MONITA,   0.1940705460275071E+05
CH3I,   0.2343881382469887E+18
H1301,   0.8837813935404474E+08
H2402,   0.1031960367575871E+08
I2O3,   0.2203119638453422E+04
PPN,   0.3460312900826755E+10
BrNO2,   0.6488710748759532E+07
CCl4,   0.2024494423926137E+10
CFC11,   0.5883761894554182E+10
CFC12,   0.1316463914410311E+11
CFC113,   0.1822336061620289E+10
CFC114,   0.4170177861429334E+09
CFC115,   0.2254436296880906E+09
C2H2,   0.5834922670950449E+07
H1211,   0.8387986249343947E+08
INO,   0.9891785567337147E+12
N2O,   0.8749965335219539E+13
NIT,   0.3058886926899389E+12
NITs,   0.6257543667380522E+07
BENZ,   0.6937024682064159E+11
N,   0.0000000000000000E+00
OCS,   0.1323026012059447E+11
PAN,   0.9333859503481314E+10
ETHN,   0.6856839955684951E+08
HI,   0.1269691884187007E+08
BZCO3H,   0.9872402025956239E+06
CH2Br2,   0.2931842381278095E+08
CH2Cl2,   0.1622230536880044E+10
IBr,   0.1562391091756119E+08
MPN,   0.6012943409089624E+04
Cl2O2,   0.5173211532367032E-09
C2H4,   0.1466026680876448E+12
CHBr3,   0.4476269237077630E+08
CHCl3,   0.3257499859497513E+09
TOLU,   0.1015123360163832E+12
XYLE,   0.8244156860306589E+11
HCFC123,   0.4596006423189103E-12
HCFC141b,   0.6922072309276936E+09
HCFC142b,   0.6022414644762596E+09
HCFC22,   0.6637092294037771E+10
HMHP,   0.5877245987218773E+09
HMS,   0.6137832069261662E+09
IPRNO3,   0.6629851971103431E+09
MAP,   0.1820720190242983E+09
MENO3,   0.9356153733386898E+08
DMS,   0.2902139473719242E+07
NPRNO3,   0.1669379444014273E+09
OIO,   0.1547825002243250E+06
R4P,   0.7487585398980704E+08
RA3P,   0.2082343766763396E+08
RB3P,   0.5000705540901479E+08
ETNO3,   0.4927966639222008E+08
BZPAN,   0.1136449449987494E+09
IONITA,   0.4729234234451677E+06
ICl,   0.1013411688899271E+10
CH3Br,   0.1886743857442678E+09
BALD,   0.5910334621516049E+09
HNO4,   0.8513066102930259E-02
ClOO,   0.3365253171069412E-05
PYAC,   0.7023899207442132E+06
HMML,   0.2301945437195899E+07
RP,   0.4015755068441701E+08
BENZP,   0.1073868393198497E+09
ETO,   0.2476500881603519E-09
IDC,   0.8431471935696354E+06
ETP,   0.8940086009759392E+08
OClO,   0.1186007491717479E+03
PP,   0.1203713763240346E+08
PRPN,   0.3145851714794756E+07
ALK4,   0.6551747808160359E+12
CSL,   0.2579982490777665E+09
IEPOXD,   0.1442702830805874E+04
MVKDH,   0.1849508049612781E+06
PHEN,   0.6743065979240134E+08
PIP,   0.8167446156122749E+06
ETHP,   0.3760716219796737E+08
HPALD1OO,   0.3976332952948804E-07
SO4,   0.5575080956448196E+11
HPALD2OO,   0.1842449595925098E-05
C3H8,   0.6580496174372583E+11
IDCHP,   0.3403067689047770E+03
INA,   0.1311257373082687E-05
HPALD4,   0.1811043958585358E+06
Br2,   0.1100831081758089E+05
HPALD3,   0.5514992121742772E+04
IEPOXA,   0.2067125201519981E+05
IEPOXB,   0.1127760591493828E+05
MCRDH,   0.1228901758190398E+05
EOH,   0.6607085206386980E+11
HONIT,   0.1242500317585665E-02
BrCl,   0.6616758481666051E+05
MACR1OOH,   0.9671446016763883E+04
MP,   0.1065686935146700E+10
SALCAL,   0.1120569793240006E-02
IHN2,   0.8575111261658903E-05
IHN3,   0.1426043547472750E+01
IDHDP,   0.5175656020780997E+04
MCT,   0.3497597127212082E+07
I2,   0.4981218560868793E+14
C4HVP1,   0.0000000000000000E+00
C4HVP2,   0.0000000000000000E+00
IDNOO,   0.1972225006866904E-09
SALAAL,   0.4177280042017358E-01
AROMP5,   0.3032020034279350E+04
CH3Cl,   0.1464979976877486E+11
ICNOO,   0.2229150337409803E-03
INPD,   0.6616683051278342E-01
ISOPNOO2,   0.1297706055126308E-13
MPAN,   0.3558758708816536E+07
MTPA,   0.1763812179356158E+09
MTPO,   0.5569552889788204E+08
MVKPC,   0.6877214935803887E+06
RIPA,   0.8517323717731006E+05
ROH,   0.4061601567421934E+06
AROMP4,   0.1963222624667651E+03
BENZO,   0.3068120088610019E+07
C2H6,   0.1735389531741626E+12
RIPB,   0.3596307755298724E+05
MCRENOL,   0.6170107418458622E+06
IDHPE,   0.4510092344230966E+05
RIPD,   0.1538727346345939E+04
IDHNDOO1,   0.1771693353622311E-11
ISOPNOO1,   0.0000000000000000E+00
IDHNDOO2,   0.4686078670812779E-11
MVKHC,   0.1151088060484353E+06
LIMO,   0.2118919861350688E+08
RIPC,   0.1990771385227159E+04
HPETHNL,   0.2206267657612703E+05
N2O5,   0.1401616650032463E+01
ICHE,   0.1176423237001054E+06
MCRHNB,   0.2771681249767795E+01
BrNO3,   0.1172947966317992E-02
H,   0.6216284487152619E-12
MONITS,   0.1025646587653026E+04
ETOO,   0.2637593375757233E+00
BZCO3,   0.5709003507620132E+06
INPB,   0.1838695869003343E+03
IHPOO1,   0.1670870041373771E-09
IHPOO2,   0.4768349246225203E-10
AROMRO2,   0.3134488407271477E+05
MVKHCB,   0.1629644198709347E+06
HPALD1,   0.6105720635230087E+04
IHPOO3,   0.2813602892501959E-09
HPALD2,   0.2487249885131977E+06
IHPNDOO,   0.1516508942336977E-13
CH4,   0.6413044302139997E+14
BENZO2,   0.2465783655851324E+07
HC5A,   0.5072905709936064E+06
HNO2,   0.8525740815692846E+10
ICHOO,   0.1467410199462828E-10
CH3CHOO,   0.1359861488296197E-14
ATOOH,   0.3044729375275224E+08
Cl2,   0.4735365483409282E+06
PROPNN,   0.3255919681598459E+07
MONITU,   0.4341408198279605E+03
MCRHN,   0.1206888829438594E+01
PRN1,   0.5433366490570176E+04
R4N2,   0.6407243458167418E+03
IONO,   0.3313107983243786E+12
MVKOHOO,   0.3616867658827106E-02
MCROHOO,   0.2452675556329100E-07
ICPDH,   0.1393770274150725E+04
MACR1OO,   0.1095612208015128E+06
ETHLN,   0.1504831475722312E+06
PO2,   0.1612810645552266E+01
NPHEN,   0.6214442757117238E+04
HCOOH,   0.1672242004120760E+12
H2O2,   0.3117784541616176E+09
ITCN,   0.1346600894017977E-01
IHN4,   0.9084082351595475E+01
OLNN,   0.1237437964152175E+04
OLND,   0.1024183339842718E+05
ETO2,   0.3339635176071126E+01
MOH,   0.9277901237022385E+11
ACTA,   0.9941165256736954E+09
IHN1,   0.4735699779400414E+02
ACET,   0.8215149379623137E+11
IHPNBOO,   0.1947016777667088E-11
GLYX,   0.1766483738204901E+08
ISOP,   0.1203520574782764E+09
LIMO2,   0.5522630674281831E-03
MEK,   0.2751213672518024E+11
IO,   0.6671502960055051E+05
IEPOXAOO,   0.5034085167488948E-10
IEPOXBOO,   0.1189694836883926E-10
MVKHP,   0.5166277125136319E+06
MCRHP,   0.3539241964918078E+06
IDHNBOO,   0.1691724669732973E+03
MGLY,   0.1151735962284400E+10
CH2OO,   0.8088576389849288E-15
ClNO2,   0.1065845576213978E+09
GLYC,   0.7840534786934361E+10
A3O2,   0.3861667155995023E+07
PIO2,   0.1834799428456311E-02
OTHRO2,   0.2874151143844508E+08
ICN,   0.1853443428266801E+07
MVKN,   0.1684420580803340E+01
ITHN,   0.8522523075693068E-01
IDN,   0.2125575165733714E+02
IHOO4,   0.9796193577904957E-03
IHOO1,   0.3096932485757059E-02
INO2D,   0.3567837301421969E+03
INO2B,   0.6586029013233600E+03
MVK,   0.3895414112084697E+09
MACRNO2,   0.2605624204290140E-13
HAC,   0.2162080992132292E+08
MACR,   0.2147413341026408E+09
ATO2,   0.7247291436094178E-02
PRPE,   0.7388753852936174E+11
KO2,   0.2368376959302832E+03
RCO3,   0.1348986705997912E+08
R4O2,   0.5512109037082342E+04
R4N1,   0.4368130203103403E+00
B3O2,   0.1662387642845000E+08
RCHO,   0.1029630440947693E+11
HOBr,   0.1100635022331661E+00
MCO3,   0.2833419171136089E+08
ClNO3,   0.1195256835237133E-01
CH2O,   0.4267270723071190E+11
ALD2,   0.4478906664812438E+11
HNO3,   0.2284159652475635E+09
MO2,   0.1394350001389870E+09
CO,   0.3465812541980784E+14
HOI,   0.4263742551677998E+09
I,   0.2115579960187551E+17
IONO2,   0.2667006863649932E+00
HOCl,   0.1140355887407010E+07
O1D,   0.0000000000000000E+00
Br,   0.7230565469895693E-10
BrO,   0.9417417842762022E-19
HCl,   0.2246683062510476E+06
SO2,   0.4762242853100073E+12
BrSALC,   0.2134260311757697E+00
H2O,   0.1046673573419124E+18
NO,   0.4247993639083090E+11
SALACL,   0.2704044127326782E+08
NO3,   0.2133357435739994E+04
O3,   0.2782950112007994E-06
BrSALA,   0.2423984771291159E+05
HO2,   0.2744808889368235E+02
ClO,   0.4047240547818320E+02
OH,   0.8895440896749172E-06
SALCCL,   0.4405419527867513E+01
O,   0.0000000000000000E+00
HBr,   0.3692221687679019E-07
Cl,   0.1139925326811263E-03
NO2,   0.4769143727526907E+10
H2,   0.1323026086022174E+14
N2,   0.2067773241415970E+20
O2,   0.5548136254559868E+19
RCOOH,   0.2648274863298850E+00
R1,   0.0000000000000000E+00
R2,   0.0000000000000000E+00
R3,   0.0000000000000000E+00
R4,   0.0000000000000000E+00
R5,   0.0000000000000000E+00
R6,   0.0000000000000000E+00
R7,   0.0000000000000000E+00
R8,   0.0000000000000000E+00
R9,   0.0000000000000000E+00
R10,   0.0000000000000000E+00
R11,   0.0000000000000000E+00
R12,   0.0000000000000000E+00
R13,   0.1306125063219363E-13
R14,   0.5633825441797428E-13
R15,   0.1693149913550484E-14
R16,   0.1669776366572876E-16
R17,   0.7732269875065597E-17
R18,   0.1800000000000000E-11
R19,   0.6801111774004697E-11
R20,   0.1187856520393073E-09
R21,   0.1800000000000000E-11
R22,   0.8827182408132897E-11
R23,   0.4488997706542727E-11
R24,   0.2524666560669123E-12
R25,   0.3936901684824494E-14
R26,   0.8303382066923266E-11
R27,   0.2491762148721596E-14
R28,   0.6213726053685217E-11
R29,   0.2719172281470610E-12
R30,   0.1147457567596921E-12
R31,   0.1600000000000000E-09
R32,   0.7845159822046276E-11
R33,   0.7845159822046276E-11
R34,   0.8652150472316413E-11
R35,   0.1215430843441995E-10
R36,   0.2087935993488316E-12
R37,   0.8618009449459809E-11
R38,   0.7424103252456706E-11
R39,   0.1558967316575907E-11
R40,   0.5158210195995977E-02
R41,   0.4105896714557432E-11
R42,   0.3500000000000000E-11
R43,   0.2674301055079618E-10
R44,   0.2000000000000000E-10
R45,   0.1366656099068281E-11
R46,   0.2038458923895630E-02
R47,   0.4000000000000000E-12
R48,   0.8304942020575600E-12
R49,   0.3444116072705968E-15
R50,   0.5800000000000000E-15
R51,   0.1646314635570016E-10
R52,   0.1430062921405061E-14
R53,   0.1003096910252247E-10
R54,   0.1022884181504681E-04
R55,   0.2155209969609968E-10
R56,   0.1899572857368130E-12
R57,   0.9499526819508729E-11
R58,   0.2619732319470269E-12
R59,   0.9761500051455756E-11
R60,   0.9068907649326314E-12
R61,   0.1890975671853794E-12
R62,   0.9703402065151272E-11
R63,   0.6082878768639463E-12
R64,   0.9600538911531409E-11
R65,   0.2096691524370838E-11
R66,   0.8214242017216247E-11
R67,   0.1386296894315162E-11
R68,   0.9600538911531409E-11
R69,   0.8602512180110273E-11
R70,   0.9600538911531409E-11
R71,   0.9367651017519963E-11
R72,   0.5872402803047995E-12
R73,   0.9600538911531409E-11
R74,   0.1923709855242515E-16
R75,   0.1600000000000000E-11
R76,   0.8840447890784166E-12
R77,   0.2651725457773805E-10
R78,   0.7574874303619841E-11
R79,   0.7724297645489294E-05
R80,   0.2297554070173675E-10
R81,   0.6500000000000000E-14
R82,   0.1601569738582206E-12
R83,   0.5920000000000000E-12
R84,   0.5920000000000000E-12
R85,   0.9356112080926369E-11
R86,   0.9356112080926369E-11
R87,   0.1087331944540092E-10
R88,   0.2022437323854658E-10
R89,   0.1685106914331692E-10
R90,   0.1685106914331692E-10
R91,   0.1082487947447955E-11
R92,   0.3000000000000000E-12
R93,   0.3000000000000000E-12
R94,   0.8000000000000000E-15
R95,   0.8370000000000000E-13
R96,   0.8370000000000000E-13
R97,   0.4593109091928188E-11
R98,   0.8370000000000000E-13
R99,   0.8370000000000000E-13
R100,   0.8370000000000000E-13
R101,   0.3350000000000000E-11
R102,   0.5670730996787276E-11
R103,   0.6800000000000000E-13
R104,   0.6800000000000000E-13
R105,   0.9482546027965915E-11
R106,   0.9482546027965915E-11
R107,   0.1685106914331692E-10
R108,   0.1685106914331692E-10
R109,   0.1864331294632794E-10
R110,   0.2769327712384376E-10
R111,   0.6639577849380639E-17
R112,   0.5977233749878582E-11
R113,   0.2022766250121418E-11
R114,   0.6952860182249913E-14
R115,   0.1063047405602745E-10
R116,   0.1527059371876042E-10
R117,   0.1024919270693600E-14
R118,   0.3967619608300904E-14
R119,   0.4856699383267186E-11
R120,   0.1522102501135158E-11
R121,   0.1812644822041218E-10
R122,   0.1069419154689466E-10
R123,   0.1069419154689466E-10
R124,   0.1812644822041218E-10
R125,   0.1812644822041218E-10
R126,   0.1265548150240623E-11
R127,   0.1812644822041218E-10
R128,   0.1130864681110785E-10
R129,   0.3000000000000000E-13
R130,   0.1400000000000000E-17
R131,   0.1776002182212233E-10
R132,   0.1224829091180850E-10
R133,   0.1145215200254095E-10
R134,   0.1145215200254095E-10
R135,   0.1145215200254095E-10
R136,   0.1145215200254095E-10
R137,   0.1145215200254095E-10
R138,   0.1145215200254095E-10
R139,   0.1145215200254095E-10
R140,   0.1145215200254095E-10
R141,   0.1145215200254095E-10
R142,   0.1145215200254095E-10
R143,   0.1531036363976062E-10
R144,   0.1145215200254095E-10
R145,   0.1182758259655787E-15
R146,   0.4947137674761860E-11
R147,   0.1078908830003385E+00
R148,   0.4349464270822050E-11
R149,   0.5996993069034512E-11
R150,   0.1297244469788620E-11
R151,   0.1063957813126977E-11
R152,   0.9469542707935430E-12
R153,   0.2383934787834383E-10
R154,   0.1560533259326667E-11
R155,   0.1135483658454066E-10
R156,   0.2774437088686036E-11
R157,   0.6322317276135703E-12
R158,   0.2258116429987485E-10
R159,   0.4900000000000000E-10
R160,   0.5011885415746155E-10
R161,   0.2525353145609517E-10
R162,   0.2525175122224102E-13
R163,   0.4206991843058800E-10
R164,   0.1600000000000000E-10
R165,   0.9357851000639001E-12
R166,   0.3397743948926645E-11
R167,   0.1590270957424165E-20
R168,   0.1911677542279754E-19
R169,   0.1340249296284895E-16
R170,   0.5654247311636963E-11
R171,   0.3631493054842115E-11
R172,   0.2441011084200365E-12
R173,   0.9523433650365973E-13
R174,   0.2198283503669724E-13
R175,   0.2025970251462506E-09
R176,   0.3203232552510752E-10
R177,   0.4027995202004145E-10
R178,   0.1200000000000000E-09
R179,   0.1279466093286619E-09
R180,   0.1750000000000000E-09
R181,   0.1941017340129432E-13
R182,   0.4575752636790363E-14
R183,   0.4109549742094556E-14
R184,   0.3456279727885131E-10
R185,   0.6193547227931270E-10
R186,   0.2400000000000000E-09
R187,   0.7231345423136929E-14
R188,   0.1489550159989153E-14
R189,   0.8817471698036620E-11
R190,   0.1300000000000000E-10
R191,   0.1940860238957535E-11
R192,   0.4541047417729696E-11
R193,   0.9952817644374045E-15
R194,   0.1412941861483416E-11
R195,   0.2548621064987076E-10
R196,   0.8050000000000001E-10
R197,   0.3631845019153894E-16
R198,   0.3017368791689039E-10
R199,   0.1287443006072349E-10
R200,   0.4373151567381767E-10
R201,   0.1030227945296004E-12
R202,   0.1500000000000000E-09
R203,   0.1500000000000000E-09
R204,   0.2700000000000000E-09
R205,   0.3300000000000000E-09
R206,   0.2600000000000000E-09
R207,   0.1800000000000000E-09
R208,   0.2700000000000000E-09
R209,   0.6600000000000000E-09
R210,   0.1020000000000000E-09
R211,   0.2300000000000000E-09
R212,   0.1400000000000000E-09
R213,   0.1500000000000000E-09
R214,   0.1000000000000000E-09
R215,   0.2600000000000000E-09
R216,   0.2000000000000000E-09
R217,   0.2000000000000000E-09
R218,   0.2320000000000000E-09
R219,   0.1423297305464714E-09
R220,   0.6020277215385516E-10
R221,   0.1600000000000000E-09
R222,   0.4824732662734779E-13
R223,   0.2045586780861232E-11
R224,   0.1968957256186884E-10
R225,   0.1380995231804769E-11
R226,   0.1231920358293981E-10
R227,   0.6804437300017174E-11
R228,   0.7273605735767601E-12
R229,   0.4898642629573272E-12
R230,   0.2585815287989893E-13
R231,   0.3628534175979000E-12
R232,   0.2531318995354032E-13
R233,   0.7908628103308285E-13
R234,   0.7838969343650861E-13
R235,   0.6640878531948427E-14
R236,   0.3222596092563283E-14
R237,   0.3787602740058839E-14
R238,   0.2127170455104025E-14
R239,   0.2834978860321146E-13
R240,   0.7114801466428427E-13
R241,   0.7265446163877199E-10
R242,   0.1114062708504557E-10
R243,   0.8149168207387470E-14
R244,   0.3153432292731612E-12
R245,   0.3725054268461672E-10
R246,   0.9247373048982916E-11
R247,   0.3810270127231294E-10
R248,   0.7438061010557129E-11
R249,   0.1830907325675601E-10
R250,   0.3038155050550292E-11
R251,   0.3141921419543687E-14
R252,   0.4174440916432189E-14
R253,   0.2440975284529570E-14
R254,   0.7239281854568612E-13
R255,   0.1264083848896501E+08
R256,   0.4280737456791907E-12
R257,   0.7228530585506496E+01
R258,   0.2420000000000000E-09
R259,   0.6973866864697971E-11
R260,   0.5901895214740018E-11
R261,   0.1172925005510932E-11
R262,   0.1714218057065875E-12
R263,   0.1060267967619863E-10
R264,   0.3632913305920416E-12
R265,   0.2734065500828660E-12
R266,   0.9123549979254371E-13
R267,   0.2000000000000000E-12
R268,   0.1600000000000000E-09
R269,   0.5700000000000000E-10
R270,   0.5586581345147238E-10
R271,   0.7400000000000000E-10
R272,   0.7400000000000000E-10
R273,   0.5500000000000000E-10
R274,   0.9600000000000000E-10
R275,   0.2800000000000000E-13
R276,   0.8128739536542815E-10
R277,   0.5859868088851597E-10
R278,   0.1786455069362510E-11
R279,   0.4654350546487230E-09
R280,   0.2050000000000000E-09
R281,   0.2356264875337175E-09
R282,   0.3600000000000000E-11
R283,   0.4304819710793876E-12
R284,   0.6311911208342040E-14
R285,   0.5729391107568851E-11
R286,   0.2139150214554144E+00
R287,   0.2342941325253832E-14
R288,   0.1500000000000000E-11
R289,   0.4310729761999653E-11
R290,   0.6373755534423264E-06
R291,   0.5360732137484170E-10
R292,   0.1200000000000000E-10
R293,   0.8643145921006618E-10
R294,   0.1000000000000000E-09
R295,   0.1500000000000000E-09
R296,   0.3800000000000000E-01
R297,   0.7844224310426186E-11
R298,   0.1329818947772808E-10
R299,   0.9874940109619030E-12
R300,   0.2886237567646005E-12
R301,   0.1800000000000000E-09
R302,   0.3000000000000000E-10
R303,   0.5000000000000000E-11
R304,   0.1026065816029982E-09
R305,   0.1979426498920168E-10
R306,   0.9186218183856375E-10
R307,   0.1049070577244259E+00
R308,   0.5381432585358023E-13
R309,   0.2400000000000000E-11
R310,   0.6700000000000000E-12
R311,   0.1200000000000000E-14
R312,   0.1000000000000000E-13
R313,   0.4250000000000000E-11
R314,   0.2800000000000000E-15
R315,   0.4456080838947726E-32
R316,   0.1400000000000000E-11
R317,   0.3800000000000000E-10
R318,   0.1200000000000000E-14
R319,   0.1000000000000000E-13
R320,   0.4250000000000000E-11
R321,   0.2650000000000000E-10
R322,   0.6000000000000000E-17
R323,   0.1000000000000000E-16
R324,   0.5961909891796595E-10
R325,   0.5961909891796595E-10
R326,   0.4000000000000000E-11
R327,   0.1500000000000000E-10
R328,   0.4633470709447861E-12
R329,   0.1184162572678909E-10
R330,   0.1200000000000000E-11
R331,   0.7323214876798035E-16
R332,   0.7323214876798035E-16
R333,   0.4919824247890869E-11
R334,   0.4919824247890869E-11
R335,   0.1796634682576776E-09
R336,   0.1727065335557493E-15
R337,   0.1220000000000000E-10
R338,   0.4000000000000000E-11
R339,   0.1500000000000000E-10
R340,   0.4633470709447861E-12
R341,   0.1184162572678909E-10
R342,   0.1200000000000000E-11
R343,   0.6769493973799105E-11
R344,   0.4000000000000000E-11
R345,   0.4000000000000000E-11
R346,   0.1846827703858681E-10
R347,   0.1846827703858681E-10
R348,   0.2082458745819263E-11
R349,   0.1259887541220654E-11
R350,   0.1416194428136263E-10
R351,   0.8593179750386140E-11
R352,   0.1200000000000000E-11
R353,   0.1200000000000000E-11
R354,   0.2625361029555087E-11
R355,   0.1593969196515589E-11
R356,   0.1110152663926151E-11
R357,   0.4800000000000000E-11
R358,   0.7290000000000000E-10
R359,   0.1670000000000000E-15
R360,   0.6210374477015558E-13
R361,   0.6210374477015558E-13
R362,   0.2780000000000000E-03
R363,   0.2780000000000000E-03
R364,   0.2087935993488316E-12
R365,   0.2133039965535337E-13
R366,   0.1693149913550484E-12
R367,   0.3762462047721781E-12
R368,   0.7100000000000000E-12
R369,   0.7820071006293892E-17
R370,   0.6977373046178490E-10
R371,   0.3565296154016630E-10
R372,   0.1049039314165638E-12
R373,   0.5452117514658089E-11
R374,   0.2287677670741204E-10
R375,   0.7092156551205139E-12
R376,   0.2250783513563761E-10
R377,   0.1078157226894946E-11
R378,   0.4599209450878908E-04
R379,   0.4938757056412127E-04
R380,   0.8003907193080921E-04
R381,   0.9798920578692582E-03
R382,   0.6711920040590271E-13
R383,   0.5477614496466644E-11
R384,   0.2963297077519775E-11
R385,   0.7487270215754705E-13
R386,   0.1801043351779480E-12
R387,   0.1167029224802246E-12
R388,   0.1939861283407593E-11
R389,   0.6013871659240726E-13
R390,   0.1908576479605102E-11
R391,   0.9142352039489748E-13
R392,   0.1737877810388551E-11
R393,   0.7573581735932342E-11
R394,   0.4659637067787865E-13
R395,   0.2424829945326393E-12
R396,   0.1593553248008108E-11
R397,   0.7569055213000182E-11
R398,   0.7058950606469323E-13
R399,   0.3673409444584232E-12
R400,   0.5977599435486738E-10
R401,   0.5977599435486738E-10
R402,   0.9043117392061368E-10
R403,   0.1438677766918854E-09
R404,   0.4894148321307943E-10
R405,   0.4353249293178663E-10
R406,   0.3164320035328412E-10
R407,   0.1015295452654163E-10
R408,   0.5912737523035294E-10
R409,   0.1788070938884861E-10
R410,   0.1040203823496950E-09
R411,   0.1259354603012692E-10
R412,   0.8464514544839402E-11
R413,   0.1451009290635301E-09
R414,   0.1451009290635301E-09
R415,   0.2887268554235268E-02
R416,   0.7396985708293381E-11
R417,   0.2203553203238026E-11
R418,   0.2747990619596953E-10
R419,   0.5284246221902282E-02
R420,   0.7558097710646840E-11
R421,   0.2042441200884569E-11
R422,   0.2747990619596953E-10
R423,   0.3404797823390646E-02
R424,   0.7979311970388622E-11
R425,   0.1621226941142786E-11
R426,   0.2747990619596953E-10
R427,   0.7554739155968315E-11
R428,   0.2463501898685320E-11
R429,   0.1049041087929910E-10
R430,   0.1935608634681323E-11
R431,   0.7119667158795506E-11
R432,   0.3404797823390646E-02
R433,   0.1347550434111841E+00
R434,   0.2647861406737145E-10
R435,   0.9217882798624803E-11
R436,   0.3826561129066057E-12
R437,   0.3404797823390646E-02
R438,   0.1347550434111841E+00
R439,   0.9293596230846684E-11
R440,   0.3069426806847241E-12
R441,   0.2647861406737145E-10
R442,   0.2647861406737145E-10
R443,   0.3826561129066057E-12
R444,   0.9217882798624803E-11
R445,   0.3404797823390646E-02
R446,   0.9600538911531409E-11
R447,   0.2647861406737145E-10
R448,   0.9600538911531409E-11
R449,   0.2647861406737145E-10
R450,   0.2934902644514462E-10
R451,   0.4898460647960096E-11
R452,   0.4192718063592088E-10
R453,   0.5687475810432827E-11
R454,   0.7785030685366780E-11
R455,   0.8385436127184176E-10
R456,   0.4781515620947853E-11
R457,   0.1212599832117320E-09
R458,   0.8063861932478692E-11
R459,   0.8063861932478692E-11
R460,   0.3404797823390646E-02
R461,   0.2892621704838898E-10
R462,   0.8633120530414077E-11
R463,   0.9674183811173308E-12
R464,   0.3404797823390646E-02
R465,   0.2892621704838898E-10
R466,   0.8814430122425533E-11
R467,   0.7861087891058750E-12
R468,   0.2280760568628614E-02
R469,   0.9246522942242757E-03
R470,   0.2892621704838898E-10
R471,   0.8346119098822770E-11
R472,   0.1254419812708638E-11
R473,   0.2892621704838898E-10
R474,   0.7308315440142681E-11
R475,   0.2292223471388727E-11
R476,   0.2892621704838898E-10
R477,   0.6943775590326396E-11
R478,   0.2656763321205012E-11
R479,   0.5774057022807106E-12
R480,   0.2747990619596953E-10
R481,   0.2747990619596953E-10
R482,   0.1610000000000000E-11
R483,   0.2560000000000000E-11
R484,   0.3710000000000000E-11
R485,   0.1180000000000000E-11
R486,   0.2800000000000000E-12
R487,   0.1920000000000000E-11
R488,   0.7710000000000000E-11
R489,   0.2300000000000000E-11
R490,   0.2300000000000000E-11
R491,   0.9156985258510212E-11
R492,   0.4435536530211971E-12
R493,   0.6652946686230504E-11
R494,   0.2947592225300904E-11
R495,   0.8427770688616526E-14
R496,   0.1815892172475011E+05
R497,   0.2416978648423674E-10
R498,   0.6617917727826727E-10
R499,   0.1146266455409855E-10
R500,   0.2284249686959783E-10
R501,   0.7498742460162967E-11
R502,   0.4702966861742478E-11
R503,   0.7019353524988773E-11
R504,   0.8063861932478692E-11
R505,   0.1189409372971132E-02
R506,   0.1583457974398210E-02
R507,   0.2937123577221034E-10
R508,   0.2937123577221034E-10
R509,   0.8574282196284162E-11
R510,   0.1026256715247247E-11
R511,   0.8231203060441915E-11
R512,   0.1369335851089493E-11
R513,   0.1491712331325118E-11
R514,   0.3843324891626081E-10
R515,   0.9600538911531409E-11
R516,   0.2825868896265692E-10
R517,   0.9999999999999999E-11
R518,   0.9600538911531409E-11
R519,   0.3015001853889774E-10
R520,   0.2372295879522071E-10
R521,   0.3441918751314733E-17
R522,   0.1744244066693170E-10
R523,   0.1483154970320850E-10
R524,   0.7157465461379327E-18
R525,   0.2410483826339482E-14
R526,   0.4915596915226207E-11
R527,   0.5770000000000000E-10
R528,   0.1483154970320850E-10
R529,   0.5510225574326152E-10
R530,   0.1483154970320850E-10
R531,   0.9600538911531409E-11
R532,   0.2147215342438105E-10
R533,   0.9000000000000000E-11
R534,   0.9600538911531409E-11
R535,   0.2147215342438105E-10
R536,   0.9000000000000000E-11
R537,   0.1308294022245021E-09
R538,   0.2746583278371944E-10
R539,   0.1121258174364757E-10
R540,   0.2746583278371944E-10
R541,   0.2577604998539671E-11
R542,   0.3093125998247605E-10
R543,   0.2358599236253255E-10
R544,   0.9059571224157017E-11
R545,   0.5409676873743912E-12
R546,   0.2358599236253255E-10
R547,   0.2569818343400271E-10
R548,   0.1660000000000000E-10
R549,   0.1331796903715579E+00
R550,   0.8795900340024027E-11
R551,   0.8046385715073819E-12
R552,   0.2488889645840271E-10
R553,   0.9898388197610070E-11
R554,   0.2569818343400271E-10
R555,   0.2145594522276096E-10
R556,   0.9898388197610070E-11
R557,   0.4000000000000000E-11
R558,   0.1776002182212233E-10
R559,   0.8880320973110359E-05
R560,   0.2900000000000000E-10
R561,   0.4330000000000000E-11
R562,   0.9999999999999999E-11
R563,   0.2250000000000000E-10
R564,   0.3000000000000000E-11
R565,   0.3000000000000000E-11
R566,   0.9999999999999999E-11
R567,   0.3000000000000000E-11
R568,   0.1653174836792043E-14
R569,   0.8000000000000000E-12
R570,   0.7961389092675524E-11
R571,   0.2569818343400271E-10
R572,   0.5315237028013725E-11
R573,   0.2910000000000000E-10
R574,   0.2383928604353185E-10
R575,   0.1770075258553637E-10
R576,   0.9244963396289505E-11
R577,   0.8696048053003735E-18
R578,   0.8874307769792254E-11
R579,   0.6265745813372331E-12
R580,   0.1702196618616736E-10
R581,   0.9954891297824762E-11
R582,   0.2300000000000000E-11
R583,   0.6000000000000000E-12
R584,   0.3565059078465853E+05
R585,   0.8427770688616526E-14
R586,   0.8400000000000000E-12
R587,   0.3782952514770088E-11
R588,   0.1380000000000000E-10
R589,   0.1142689598343042E-11
R590,   0.6172533322854648E-11
R591,   0.1700000000000000E-10
R592,   0.2654759196956376E-10
R593,   0.9761500051455756E-11
R594,   0.2300000000000000E-11
R595,   0.3773539845384472E-13
R596,   0.9322863147420461E-13
R597,   0.3912811002660915E-10
R598,   0.3800000000000000E-11
R599,   0.4700000000000000E-10
R600,   0.1400000000000000E-10
R601,   0.2000000000000000E-10
R602,   0.9200000000000000E-17
R603,   0.9899999999999999E-10
R604,   0.1333590476323586E-10
R605,   0.2400000000000000E-14
R606,   0.3772103697300064E-10
R607,   0.2145594522276096E-10
R608,   0.1001815178921538E-10
R609,   0.4660000000000000E-11
R610,   0.6854286447343410E-05
R611,   0.1060000000000000E-11
R612,   0.7000000000000000E-11
R613,   0.1002430966822572E-10
R614,   0.2300000000000000E-11
R615,   0.2492104853399666E-10
R616,   0.3600000000000000E-11
R617,   0.2860000000000000E-12
R618,   0.2080000000000000E-11
R619,   0.3470000000000000E-11
R620,   0.2600000000000000E-11
R621,   0.1002430966822572E-11
R622,   0.1002430966822572E-10
R623,   0.5000000000000000E-10
R624,   0.8000000000000000E-15
R625,   0.1500000000000000E-02
R626,   0.5000000000000000E-10
R627,   0.8000000000000000E-15
R628,   0.1500000000000000E-02
R629,   0.1770075258553637E-10
R630,   0.9244963396289505E-11
R631,   0.1770075258553637E-10
R632,   0.9244963396289505E-11
R633,   0.1770075258553637E-10
R634,   0.9244963396289505E-11
R635,   0.1200000000000000E-11
R636,   0.4429149334337991E-10
R637,   0.6590335356767159E-01
R638,   0.5337087225134494E-05
R639,   0.7917504249163501E-03
R640,   0.2012573944829506E-07
R641,   0.1329470130619842E-11
R642,   0.5415407077728137E-20
R643,   0.0000000000000000E+00
R644,   0.0000000000000000E+00
R645,   0.2834224499151186E-13
R646,   0.4613985518844530E-13
R647,   0.2430063744381336E-12
R648,   0.1861269486775501E-13
R649,   0.1174255146722783E-19
R650,   0.0000000000000000E+00
R651,   0.7061724340248307E-19
R652,   0.0000000000000000E+00
R653,   0.0000000000000000E+00
R654,   0.0000000000000000E+00
R655,   0.0000000000000000E+00
R656,   0.2043836528817186E-13
R657,   0.3414210363378818E-07
R658,   0.0000000000000000E+00
R659,   0.0000000000000000E+00
R660,   0.0000000000000000E+00
R661,   0.8662655386846380E-14
R662,   0.0000000000000000E+00
R663,   0.0000000000000000E+00
R664,   0.0000000000000000E+00
R665,   0.0000000000000000E+00
R666,   0.5702237189752122E-16
R667,   0.1807709511614873E-16
R668,   0.0000000000000000E+00
R669,   0.0000000000000000E+00
R670,   0.0000000000000000E+00
R671,   0.3372633441179459E-12
R672,   0.4433315715799872E-12
R673,   0.3386066935086624E-08
R674,   0.0000000000000000E+00
R675,   0.0000000000000000E+00
R676,   0.0000000000000000E+00
R677,   0.4242723223675972E-15
R678,   0.0000000000000000E+00
R679,   0.6184793714445779E-02
R680,   0.1355736734754715E-06
R681,   0.6743923198623428E-02
R682,   0.2842688326930065E-05
R683,   0.1393519570311092E-06
R684,   0.0000000000000000E+00
R685,   0.0000000000000000E+00
R686,   0.9429898022217180E-03
R687,   0.4101527385982588E-06
R688,   0.2864515128106286E-07
R689,   0.9178195441934165E-03
R690,   0.3992584936902100E-06
R691,   0.2793582540292971E-07
R692,   0.8945678255239541E-03
R693,   0.3891923764119877E-06
R694,   0.2727841361774535E-07
R695,   0.0000000000000000E+00
R696,   0.0000000000000000E+00
R697,   0.0000000000000000E+00
R698,   0.0000000000000000E+00
R699,   0.1018354967694758E-19
R700,   0.3252656695474025E-11
R701,   0.0000000000000000E+00
R702,   0.1652273763811812E-13
R703,   0.3018313936815677E-08
R704,   0.1568981792886400E-11
R705,   0.0000000000000000E+00
R706,   0.7970061691084235E-14
R707,   0.3522934928875932E-08
R708,   0.1796036932864130E-11
R709,   0.0000000000000000E+00
R710,   0.9123448863010013E-14
R711,   0.4009570150075659E-08
R712,   0.8432582276134732E-06
R713,   0.3405351184235766E-07
R714,   0.2749820891205699E-07
R715,   0.2749820891205699E-07
R716,   0.2749820891205699E-07
R717,   0.1201566872099362E+00
R718,   0.8501160771170284E-03
R719,   0.9510515967057841E-03
R720,   0.1413007895237626E-02
R721,   0.1413007895237626E-02
R722,   0.1413924856012875E-02
R723,   0.3080528111268531E-07
R724,   0.2749821079937958E-07
R725,   0.8557779082588896E-03
R726,   0.8402054163924561E-02
R727,   0.8557779082588896E-03
R728,   0.8557779082588896E-03
R729,   0.2749820439797331E-07
R730,   0.8128039597466691E-03
R731,   0.8128039597466691E-03
R732,   0.7490614101660079E-03
R733,   0.7432907252077029E-03
R734,   0.7394794863731563E-03
R735,   0.8501445339752493E-03
R736,   0.8501445339752493E-03
R737,   0.1756528045156896E-02
R738,   0.0000000000000000E+00
R739,   0.0000000000000000E+00
R740,   0.0000000000000000E+00
R741,   0.0000000000000000E+00
R742,   0.0000000000000000E+00
R743,   0.0000000000000000E+00
R744,   0.0000000000000000E+00
R745,   0.0000000000000000E+00
R746,   0.0000000000000000E+00
R747,   0.0000000000000000E+00
R748,   0.0000000000000000E+00
R749,   0.0000000000000000E+00
R750,   0.0000000000000000E+00
R751,   0.0000000000000000E+00
R752,   0.0000000000000000E+00
R753,   0.0000000000000000E+00
R754,   0.0000000000000000E+00
R755,   0.0000000000000000E+00
R756,   0.0000000000000000E+00
R757,   0.0000000000000000E+00
R758,   0.0000000000000000E+00
R759,   0.0000000000000000E+00
R760,   0.0000000000000000E+00
R761,   0.0000000000000000E+00
R762,   0.0000000000000000E+00
R763,   0.0000000000000000E+00
R764,   0.0000000000000000E+00
R765,   0.0000000000000000E+00
R766,   0.0000000000000000E+00
R767,   0.0000000000000000E+00
R768,   0.0000000000000000E+00
R769,   0.0000000000000000E+00
R770,   0.0000000000000000E+00
R771,   0.0000000000000000E+00
R772,   0.0000000000000000E+00
R773,   0.0000000000000000E+00
R774,   0.0000000000000000E+00
R775,   0.0000000000000000E+00
R776,   0.0000000000000000E+00
R777,   0.0000000000000000E+00
R778,   0.0000000000000000E+00
R779,   0.0000000000000000E+00
R780,   0.0000000000000000E+00
R781,   0.0000000000000000E+00
R782,   0.0000000000000000E+00
R783,   0.0000000000000000E+00
R784,   0.0000000000000000E+00
R785,   0.0000000000000000E+00
R786,   0.0000000000000000E+00
R787,   0.0000000000000000E+00
R788,   0.0000000000000000E+00
R789,   0.0000000000000000E+00
R790,   0.0000000000000000E+00
R791,   0.0000000000000000E+00
R792,   0.0000000000000000E+00
R793,   0.0000000000000000E+00
R794,   0.0000000000000000E+00
R795,   0.0000000000000000E+00
R796,   0.0000000000000000E+00
R797,   0.0000000000000000E+00
R798,   0.0000000000000000E+00
R799,   0.0000000000000000E+00
R800,   0.0000000000000000E+00
R801,   0.0000000000000000E+00
R802,   0.0000000000000000E+00
R803,   0.0000000000000000E+00
R804,   0.0000000000000000E+00
R805,   0.0000000000000000E+00
R806,   0.0000000000000000E+00
R807,   0.0000000000000000E+00
R808,   0.0000000000000000E+00
R809,   0.0000000000000000E+00
R810,   0.0000000000000000E+00
R811,   0.0000000000000000E+00
R812,   0.0000000000000000E+00
R813,   0.0000000000000000E+00
R814,   0.0000000000000000E+00
R815,   0.0000000000000000E+00
R816,   0.0000000000000000E+00
R817,   0.0000000000000000E+00
R818,   0.0000000000000000E+00
R819,   0.0000000000000000E+00
R820,   0.0000000000000000E+00
R821,   0.0000000000000000E+00
R822,   0.0000000000000000E+00
R823,   0.0000000000000000E+00
R824,   0.0000000000000000E+00
R825,   0.0000000000000000E+00
R826,   0.0000000000000000E+00
R827,   0.0000000000000000E+00
R828,   0.0000000000000000E+00
R829,   0.0000000000000000E+00
R830,   0.0000000000000000E+00
R831,   0.0000000000000000E+00
R832,   0.0000000000000000E+00
R833,   0.0000000000000000E+00
R834,   0.0000000000000000E+00
R835,   0.0000000000000000E+00
R836,   0.0000000000000000E+00
R837,   0.0000000000000000E+00
R838,   0.0000000000000000E+00
R839,   0.0000000000000000E+00
R840,   0.0000000000000000E+00
R841,   0.0000000000000000E+00
R842,   0.0000000000000000E+00
R843,   0.0000000000000000E+00
R844,   0.0000000000000000E+00
R845,   0.0000000000000000E+00
R846,   0.0000000000000000E+00
R847,   0.0000000000000000E+00
R848,   0.0000000000000000E+00
R849,   0.0000000000000000E+00
R850,   0.0000000000000000E+00
R851,   0.0000000000000000E+00
R852,   0.0000000000000000E+00
R853,   0.0000000000000000E+00
R854,   0.0000000000000000E+00
R855,   0.0000000000000000E+00
R856,   0.0000000000000000E+00
R857,   0.0000000000000000E+00
R858,   0.0000000000000000E+00
R859,   0.0000000000000000E+00
R860,   0.0000000000000000E+00
R861,   0.0000000000000000E+00
R862,   0.0000000000000000E+00
R863,   0.0000000000000000E+00
R864,   0.0000000000000000E+00
R865,   0.0000000000000000E+00
R866,   0.0000000000000000E+00
R867,   0.0000000000000000E+00
R868,   0.0000000000000000E+00
R869,   0.0000000000000000E+00
R870,   0.0000000000000000E+00
R871,   0.0000000000000000E+00
R872,   0.0000000000000000E+00
R873,   0.0000000000000000E+00
R874,   0.0000000000000000E+00
R875,   0.0000000000000000E+00
R876,   0.0000000000000000E+00
R877,   0.0000000000000000E+00
R878,   0.0000000000000000E+00
R879,   0.0000000000000000E+00
R880,   0.0000000000000000E+00
R881,   0.0000000000000000E+00
R882,   0.0000000000000000E+00
R883,   0.0000000000000000E+00
R884,   0.0000000000000000E+00
R885,   0.0000000000000000E+00
R886,   0.0000000000000000E+00
R887,   0.0000000000000000E+00
R888,   0.0000000000000000E+00
R889,   0.0000000000000000E+00
R890,   0.0000000000000000E+00
R891,   0.0000000000000000E+00
R892,   0.0000000000000000E+00
R893,   0.0000000000000000E+00
R894,   0.0000000000000000E+00
A1,   0.0000000000000000E+00
A2,   0.0000000000000000E+00
A3,   0.0000000000000000E+00
A4,   0.0000000000000000E+00
A5,   0.0000000000000000E+00
A6,   0.0000000000000000E+00
A7,   0.0000000000000000E+00
A8,   0.0000000000000000E+00
A9,   0.0000000000000000E+00
A10,   0.0000000000000000E+00
A11,   0.0000000000000000E+00
A12,   0.0000000000000000E+00
A13,   0.1544095090371950E-09
A14,   0.1394685501764874E-25
A15,   0.1293340702651254E-19
A16,   0.2216175462058372E-13
A17,   0.3000435022532459E-15
A18,   0.1424319637456039E-23
A19,   0.5381642809026870E-23
A20,   0.2900304363590725E-14
A21,   0.4992132261374084E-09
A22,   0.1029243351774655E+02
A23,   0.3382000026311459E-08
A24,   0.7783529492022620E-05
A25,   0.2245878656968180E-06
A26,   0.4918250909820989E+08
A27,   0.1475918048360805E+05
A28,   0.2378132321388914E-01
A29,   0.5286647179506010E+04
A30,   0.2230900687932250E+04
A31,   0.1984537284279314E-07
A32,   0.7437019419451209E-08
A33,   0.2124799577070756E-09
A34,   0.3284291818159132E-06
A35,   0.5156299587534947E-07
A36,   0.4242395128398950E-10
A37,   0.3256554136258845E-06
A38,   0.5630456501538279E-07
A39,   0.2040748720606162E+00
A40,   0.4391218437132260E-04
A41,   0.3109291964241143E-19
A42,   0.2049480458836636E-06
A43,   0.2423582340472064E+04
A44,   0.3795430996253097E-13
A45,   0.1390475306762553E+02
A46,   0.2857137968139373E-02
A47,   0.5950131965087040E-07
A48,   0.6854153534377544E-07
A49,   0.3504142963241850E-02
A50,   0.5280095961880112E-01
A51,   0.6559221997113503E-06
A52,   0.1366440685830269E+00
A53,   0.1355483176389767E+07
A54,   0.9547457238498170E+05
A55,   0.2594085422414428E+08
A56,   0.2932381069933888E-07
A57,   0.1347674024628245E+01
A58,   0.3716548482371428E-01
A59,   0.1191818222736209E+08
A60,   0.5308613398569357E-07
A61,   0.1106909362862180E-07
A62,   0.1591778825197418E+07
A63,   0.9978559638312063E+05
A64,   0.6577530208390460E+00
A65,   0.1221966191082927E-05
A66,   0.1923397964338659E+04
A67,   0.3246070202102973E+03
A68,   0.1781455773765494E+00
A69,   0.2648407932236744E-02
A70,   0.9658958438568591E+02
A71,   0.6615259160850997E+07
A72,   0.4146980536146722E+06
A73,   0.2215891389577489E+04
A74,   0.2688811567750893E-01
A75,   0.9119240878913767E-15
A76,   0.7817700716487269E-09
A77,   0.2428719783892385E-06
A78,   0.4873304084815480E+06
A79,   0.2672848679251233E+05
A80,   0.1316610360751831E+08
A81,   0.1427770342219006E+00
A82,   0.1170385135992689E-07
A83,   0.3187633237762694E+03
A84,   0.1331302935313501E-03
A85,   0.1415550368813226E-05
A86,   0.1121768143269558E-09
A87,   0.2162967454746129E-11
A88,   0.1314734351903356E-06
A89,   0.7689035643015398E-02
A90,   0.2513093067514751E-05
A91,   0.2649200748899162E-07
A92,   0.1396986093718930E-03
A93,   0.1202271795424286E+04
A94,   0.4695457716460690E-01
A95,   0.6433022336823628E-01
A96,   0.5097917870941120E-05
A97,   0.4641456536697745E-05
A98,   0.2764063950606851E-02
A99,   0.1940124327537266E+03
A100,   0.6341124198168652E-01
A101,   0.1968893354432240E-06
A102,   0.2048820177489005E-11
A103,   0.7584150914291102E-12
A104,   0.5617306462410630E+02
A105,   0.8692327839315982E-09
A106,   0.7480776397688000E-02
A107,   0.1786135534134029E-02
A108,   0.7459727334030904E-09
A109,   0.6903079437200014E-02
A110,   0.1820174513365187E-05
A111,   0.1365265410416567E-12
A112,   0.4168822503476795E-07
A113,   0.1410778600209642E-07
A114,   0.1095969127947281E+01
A115,   0.1670435665976086E-09
A116,   0.1564502742632929E-07
A117,   0.3862450516744865E-04
A118,   0.9748697206329562E-02
A119,   0.9340726583080131E-10
A120,   0.2927408549005464E-10
A121,   0.5072457778505291E-10
A122,   0.8504663487342167E-09
A123,   0.1980924230701427E-09
A124,   0.8063275074176582E-09
A125,   0.1207318851701192E-08
A126,   0.4520779948652274E-10
A127,   0.1940901159685058E-09
A128,   0.3883864701204402E-29
A129,   0.4858832652547309E-11
A130,   0.5183088626024881E-03
A131,   0.1425821473744241E+05
A132,   0.4839027858077308E+05
A133,   0.1788610317723219E+01
A134,   0.2351655264970321E-05
A135,   0.7685086483538132E-01
A136,   0.5394239609639514E+04
A137,   0.1417403519754149E-03
A138,   0.1763059347996755E+01
A139,   0.1083669770167318E-02
A140,   0.9326260340628824E+04
A141,   0.5233368465250004E-03
A142,   0.1253062606773393E+04
A143,   0.5851995772217367E+04
A144,   0.2154103542600827E+05
A145,   0.5382985889199357E-09
A146,   0.3289775098796462E+07
A147,   0.6487417738377453E+03
A148,   0.1122849439245198E-10
A149,   0.1548172346165765E-10
A150,   0.8031630757084275E-02
A151,   0.4507164669434901E-06
A152,   0.1905490074921044E-28
A153,   0.6162235943787915E-28
A154,   0.3097115513010166E-20
A155,   0.3729375692265349E-24
A156,   0.2460586073970009E-49
A157,   0.5607121498021447E-50
A158,   0.9033624380409510E-19
A159,   0.4155727760989191E-23
A160,   0.4907827560701223E-12
A161,   0.0000000000000000E+00
A162,   0.0000000000000000E+00
A163,   0.3524284733079588E-35
A164,   0.2468060897569091E-17
A165,   0.2887344370879187E-11
A166,   0.1100360324929323E-10
A167,   0.9446237385912818E-20
A168,   0.2398743850871715E-18
A169,   0.6377001096752690E-16
A170,   0.1949788362791917E-11
A171,   0.1631013174213815E-20
A172,   0.9719712752815177E-11
A173,   0.2483714412209267E-11
A174,   0.3689471196039368E-11
A175,   0.0000000000000000E+00
A176,   0.0000000000000000E+00
A177,   0.0000000000000000E+00
A178,   0.0000000000000000E+00
A179,   0.0000000000000000E+00
A180,   0.0000000000000000E+00
A181,   0.0000000000000000E+00
A182,   0.0000000000000000E+00
A183,   0.4836488141068563E-07
A184,   0.0000000000000000E+00
A185,   0.0000000000000000E+00
A186,   0.0000000000000000E+00
A187,   0.0000000000000000E+00
A188,   0.1753036642378697E-10
A189,   0.0000000000000000E+00
A190,   0.0000000000000000E+00
A191,   0.0000000000000000E+00
A192,   0.0000000000000000E+00
A193,   0.0000000000000000E+00
A194,   0.4873065985059206E-05
A195,   0.4409014946757623E-29
A196,   0.1373532289993859E-20
A197,   0.0000000000000000E+00
A198,   0.0000000000000000E+00
A199,   0.0000000000000000E+00
A200,   0.0000000000000000E+00
A201,   0.0000000000000000E+00
A202,   0.0000000000000000E+00
A203,   0.0000000000000000E+00
A204,   0.0000000000000000E+00
A205,   0.0000000000000000E+00
A206,   0.0000000000000000E+00
A207,   0.0000000000000000E+00
A208,   0.0000000000000000E+00
A209,   0.0000000000000000E+00
A210,   0.0000000000000000E+00
A211,   0.0000000000000000E+00
A212,   0.0000000000000000E+00
A213,   0.0000000000000000E+00
A214,   0.0000000000000000E+00
A215,   0.0000000000000000E+00
A216,   0.0000000000000000E+00
A217,   0.0000000000000000E+00
A218,   0.0000000000000000E+00
A219,   0.0000000000000000E+00
A220,   0.0000000000000000E+00
A221,   0.0000000000000000E+00
A222,   0.2032330041575784E-13
A223,   0.1154379823355828E-01
A224,   0.7088637765206643E-15
A225,   0.4971857526607691E-16
A226,   0.1299683313553025E-14
A227,   0.3131265782021524E-26
A228,   0.1453647300827218E-12
A229,   0.4969167602596347E-12
A230,   0.2451654483962333E-11
A231,   0.3857979648517187E-20
A232,   0.3298724495837125E-09
A233,   0.1141251087715336E-09
A234,   0.2271490109518611E-10
A235,   0.1907002424774826E-12
A236,   0.1902616293210483E-10
A237,   0.2332212035621905E-11
A238,   0.1139568469410342E-11
A239,   0.1159038681542782E-31
A240,   0.5201198503217277E-03
A241,   0.3534181816429206E-03
A242,   0.3534202755603975E-21
A243,   0.1229017572061915E-04
A244,   0.1120742943298902E-07
A245,   0.1165523725852289E-12
A246,   0.2893389441772508E-13
A247,   0.0000000000000000E+00
A248,   0.8262868959461469E-08
A249,   0.3147815268312234E+02
A250,   0.5864207951426836E+00
A251,   0.5146516315494763E-11
A252,   0.6837799364061547E-11
A253,   0.3998355607943692E-11
A254,   0.4578455599737246E+02
A255,   0.4253962180996577E+02
A256,   0.7011914755948523E-09
A257,   0.3739471778701002E-08
A258,   0.9283452316418130E-19
A259,   0.2658058346109079E-28
A260,   0.2249481118260543E-28
A261,   0.4470551504274228E-29
A262,   0.0000000000000000E+00
A263,   0.1444618857673225E-16
A264,   0.6066848164475123E-06
A265,   0.5055893184772958E-07
A266,   0.3387853827972560E-08
A267,   0.3812462026109756E-05
A268,   0.2543127809637811E-05
A269,   0.6924380108605892E-05
A270,   0.1105145610572635E-02
A271,   0.2817131692439818E-13
A272,   0.2424475084644417E-06
A273,   0.5816863029854449E-03
A274,   0.7230320412634117E-03
A275,   0.3173012095167780E-08
A276,   0.6097590458791804E-03
A277,   0.4395647761590923E-03
A278,   0.1672953868710619E-04
A279,   0.6385413285411382E-05
A280,   0.1531043168587445E-01
A281,   0.1984594169100223E-02
A282,   0.1923295265085566E-10
A283,   0.3868728651689194E+15
A284,   0.6176042377998522E+10
A285,   0.5780671963784782E+15
A286,   0.7087235653196994E+11
A287,   0.2571772774955146E+09
A288,   0.1594007948381327E+06
A289,   0.1371560255916829E+04
A290,   0.1699884975753359E-06
A291,   0.3024667814552878E+06
A292,   0.2390796055783201E-13
A293,   0.5430344329278443E-24
A294,   0.1032631908411306E+01
A295,   0.3593643356353974E+01
A296,   0.4434731966330204E+01
A297,   0.5157695746723974E+05
A298,   0.3590667717883087E-04
A299,   0.5813923807794108E-02
A300,   0.1675998521975234E+06
A301,   0.7975824354359697E-02
A302,   0.3388340733860284E-09
A303,   0.1896393493370307E-08
A304,   0.1878931786977346E-03
A305,   0.5609794092354818E+05
A306,   0.4088689418737052E+00
A307,   0.2438317073530726E+00
A308,   0.1122021068920508E-01
A309,   0.3212673468445359E-12
A310,   0.1940510353178839E-11
A311,   0.3364018739845117E-16
A312,   0.3436022105331744E-18
A313,   0.1639462292556558E-16
A314,   0.2370507763074392E-13
A315,   0.3948641181851453E-13
A316,   0.3151414639816281E-33
A317,   0.1463751073963923E-13
A318,   0.5655630001792337E-16
A319,   0.5776682952316307E-18
A320,   0.2756284327065614E-16
A321,   0.1716137523268817E-13
A322,   0.8539986499860171E-15
A323,   0.1423331083310029E-14
A324,   0.9354169247325732E-08
A325,   0.2953746491422258E-08
A326,   0.3117686520430279E-03
A327,   0.7554260672151960E-12
A328,   0.1185405176990208E-06
A329,   0.6156172132590459E-06
A330,   0.4697139604546514E-11
A331,   0.3594674207981100E-14
A332,   0.1135082768859006E-14
A333,   0.1851252046675725E+01
A334,   0.5845659933050691E+00
A335,   0.3386427555753618E-08
A336,   0.1018424222835605E-14
A337,   0.5514904399178571E+00
A338,   0.9384039990141750E-04
A339,   0.2273784865119969E-12
A340,   0.3567994893810536E-07
A341,   0.1852969023660921E-06
A342,   0.1413809425658991E-11
A343,   0.4918242796265270E-11
A344,   0.2102651440191347E+03
A345,   0.1740289725162696E+04
A346,   0.6272807038176483E-06
A347,   0.5191779021383282E-05
A348,   0.3593119357445702E+00
A349,   0.1799207653066133E+01
A350,   0.4965433218350501E+00
A351,   0.2493689814486356E+01
A352,   0.3167876978509202E-05
A353,   0.2621938972337380E-04
A354,   0.4020091204689799E-05
A355,   0.2020138135868733E-04
A356,   0.1164496317165047E-03
A357,   0.4379317728681581E-14
A358,   0.2815306148657827E-13
A359,   0.2017681046089666E-19
A360,   0.5751909393721803E-07
A361,   0.1358873889006326E-06
A362,   0.1314727117177566E+03
A363,   0.5395161179564697E+01
A364,   0.2307709659719508E-21
A365,   0.1775267572985726E-11
A366,   0.7422165779049265E-11
A367,   0.2218929163134110E-09
A368,   0.1054340498671864E-09
A369,   0.2619205878191211E-15
A370,   0.7469868230075904E-08
A371,   0.3816951207200703E-08
A372,   0.1123085349331923E-10
A373,   0.5836953125458992E-09
A374,   0.1944637616862475E-11
A375,   0.6028679035750115E-13
A376,   0.6052059587773872E-12
A377,   0.2899022381688688E-13
A378,   0.1424344115722777E-06
A379,   0.1529499716726462E-06
A380,   0.7840782424300661E-07
A381,   0.9599212284338899E-06
A382,   0.6437396350285181E-18
A383,   0.5256615133931762E-17
A384,   0.8990095161218764E-17
A385,   0.7181033991617623E-18
A386,   0.1728378611882632E-18
A387,   0.3540550782602235E-18
A388,   0.8376724155616681E-06
A389,   0.2596914760226982E-07
A390,   0.2606986170612690E-06
A391,   0.1248783351807517E-07
A392,   0.2286308513536836E-03
A393,   0.9963614413695651E-03
A394,   0.6130101802550409E-05
A395,   0.3190045534121469E-04
A396,   0.6631439258938231E-04
A397,   0.3149799352817428E-03
A398,   0.2937523564848480E-05
A399,   0.1528658777823684E-04
A400,   0.3246618186702964E-12
A401,   0.1322554894724566E-10
A402,   0.4436398435563716E-12
A403,   0.2317714845226771E-10
A404,   0.2208520300060596E-10
A405,   0.4555589789244790E-11
A406,   0.2373292562960970E-10
A407,   0.7692421504917059E-12
A408,   0.4479806262918383E-11
A409,   0.5720171802143974E-12
A410,   0.3327689327225707E-11
A411,   0.9541544193078286E-12
A412,   0.2707861101328804E-12
A413,   0.2569561764962839E-12
A414,   0.1986091916537217E-12
A415,   0.4824250528672271E-12
A416,   0.5250266029918284E-10
A417,   0.1564047976340820E-10
A418,   0.1260288663352272E-18
A419,   0.2519713148907613E-12
A420,   0.1530962019219430E-10
A421,   0.4137151998760797E-11
A422,   0.3596627115883311E-19
A423,   0.9579749004276294E-12
A424,   0.9537007073328073E-10
A425,   0.1937717545388283E-10
A426,   0.2122218808639322E-18
A427,   0.9695357696343289E-14
A428,   0.4529884841670604E-13
A429,   0.1928975709350712E-12
A430,   0.1941788585406793E-13
A431,   0.7142398609479672E-13
A432,   0.1714004222102950E-12
A433,   0.6783683652805710E-11
A434,   0.3658709432159320E-19
A435,   0.1971222276732534E-10
A436,   0.8183009814378561E-12
A437,   0.4050670391121480E-13
A438,   0.1603173793903550E-11
A439,   0.4696812625401136E-11
A440,   0.1551231861278248E-12
A441,   0.8646551610229622E-20
A442,   0.1066495174196559E-19
A443,   0.2385305703898759E-12
A444,   0.5746012588278302E-11
A445,   0.4996235053152272E-13
A446,   0.1621668990638592E-07
A447,   0.2889948500338249E-16
A448,   0.7514067387919777E-06
A449,   0.1339069064310597E-14
A450,   0.2238725993141044E-21
A451,   0.3736516166716327E-22
A452,   0.5318582814284088E-16
A453,   0.7214725780084667E-17
A454,   0.3279532730343488E-15
A455,   0.3532460352275363E-14
A456,   0.3863795390710753E-16
A457,   0.9798645478821553E-15
A458,   0.3396993564873639E-15
A459,   0.6516158271979608E-16
A460,   0.0000000000000000E+00
A461,   0.0000000000000000E+00
A462,   0.0000000000000000E+00
A463,   0.0000000000000000E+00
A464,   0.4418426751894913E-16
A465,   0.1030338867990757E-22
A466,   0.4859084236674413E-14
A467,   0.4333540311060351E-15
A468,   0.4040808340643157E-14
A469,   0.4332993393882480E-14
A470,   0.1406670268037152E-20
A471,   0.6281407829283192E-12
A472,   0.9440941759227247E-13
A473,   0.3720602962379587E-20
A474,   0.1454824871637050E-11
A475,   0.4562999154647097E-12
A476,   0.1343177581917852E-06
A477,   0.4990099635144189E+02
A478,   0.1909265860820600E+02
A479,   0.1482511986978174E+00
A480,   0.4967650084301614E-06
A481,   0.2691115881143271E-06
A482,   0.6983500284267914E-06
A483,   0.6015457275305513E-06
A484,   0.4722630776494077E-06
A485,   0.5870280456511932E-01
A486,   0.2571304277851679E-01
A487,   0.3582908326608880E-01
A488,   0.7794176707803806E-01
A489,   0.3231581412497684E-05
A490,   0.1750638614394786E-05
A491,   0.2561887250353431E+03
A492,   0.1240948212149431E+02
A493,   0.1008330589944530E+03
A494,   0.4467415038219040E+02
A495,   0.6131232311327177E-01
A496,   0.2381101999880997E-01
A497,   0.3953212798226044E-14
A498,   0.3895194731330580E-17
A499,   0.1874834610003191E-14
A500,   0.1344470830798795E-17
A501,   0.4413633309404063E-18
A502,   0.7692177504173946E-15
A503,   0.4131473069379154E-18
A504,   0.4746253097329321E-18
A505,   0.1803749950210138E-16
A506,   0.3083019242884056E-14
A507,   0.1569654339286675E-20
A508,   0.1222585685552472E-22
A509,   0.7091715826016645E-12
A510,   0.8488081943732611E-13
A511,   0.5302640066377654E-14
A512,   0.8821426339498730E-15
A513,   0.2459415428568881E-11
A514,   0.6336565259248951E-10
A515,   0.9091150113493965E-04
A516,   0.1729033786620256E-12
A517,   0.1890792825838208E-15
A518,   0.8043330812693193E-10
A519,   0.1632135293881924E-18
A520,   0.8220343512508614E-08
A521,   0.3731295709018177E-15
A522,   0.3331887887521723E-08
A523,   0.2833150575250874E-08
A524,   0.4277404568895585E-16
A525,   0.1104290903236538E-02
A526,   0.7365365116968668E-17
A527,   0.2651679249880023E-10
A528,   0.4669434252497910E-11
A529,   0.5915672518692208E-16
A530,   0.3656767040218887E-16
A531,   0.0000000000000000E+00
A532,   0.0000000000000000E+00
A533,   0.0000000000000000E+00
A534,   0.0000000000000000E+00
A535,   0.0000000000000000E+00
A536,   0.0000000000000000E+00
A537,   0.7180679788842129E-10
A538,   0.1680245913575859E-10
A539,   0.1844715201172702E-11
A540,   0.3981557986807217E-11
A541,   0.2639322092348438E-12
A542,   0.3381288717410178E-12
A543,   0.2341525454693394E-11
A544,   0.1391951552246406E-02
A545,   0.8311660602083271E-04
A546,   0.1587838646302927E-16
A547,   0.7728076262494791E-04
A548,   0.1428127488708507E-12
A549,   0.3266465711737982E-08
A550,   0.9164404727281037E-08
A551,   0.8383489174974860E-09
A552,   0.1158367493055928E+06
A553,   0.5172038580721696E+04
A554,   0.1837918783201298E-22
A555,   0.2374888854683391E-13
A556,   0.1230032744511442E-14
A557,   0.2223491108386590E-21
A558,   0.6452486080772206E-16
A559,   0.3160291960014262E+02
A560,   0.9180451050419979E-10
A561,   0.8866462879922901E-11
A562,   0.1239820109735366E-13
A563,   0.6811152186501276E-14
A564,   0.1381192267042841E-13
A565,   0.1203577796609625E-12
A566,   0.1197860866424651E-18
A567,   0.2274348009330260E-18
A568,   0.5307258956541251E-06
A569,   0.4998454421161987E-12
A570,   0.4162269494766325E-08
A571,   0.1998597613093787E-01
A572,   0.1043153725182578E-12
A573,   0.5711085553254583E-12
A574,   0.0000000000000000E+00
A575,   0.0000000000000000E+00
A576,   0.0000000000000000E+00
A577,   0.3547882484102420E-13
A578,   0.1157294366814610E-05
A579,   0.3252185849784494E-11
A580,   0.1232337540261104E-09
A581,   0.1115393792809869E+00
A582,   0.1294193771344956E-08
A583,   0.2206636996291806E-04
A584,   0.8828871950789313E-05
A585,   0.1157972686065517E-04
A586,   0.5123547623398150E-10
A587,   0.1265519762531330E-09
A588,   0.4616545583045402E-09
A589,   0.7051296753371779E-07
A590,   0.5573778982353870E-06
A591,   0.1246701971604570E-05
A592,   0.2284041094831776E-04
A593,   0.1299771729382526E+05
A594,   0.1538006354705485E-03
A595,   0.1649253481558453E+00
A596,   0.8279932668530401E-01
A597,   0.2347003615788033E-08
A598,   0.5466440579668983E+00
A599,   0.1078653842783941E-07
A600,   0.7705634763091332E+01
A601,   0.6222533705150954E-10
A602,   0.8954947251579006E-17
A603,   0.7387008590175128E+00
A604,   0.7011356237529493E-08
A605,   0.3026125515005468E-02
A606,   0.5910933108251707E-03
A607,   0.5203455194832734E+06
A608,   0.2727648025106068E+05
A609,   0.4092382582857168E-11
A610,   0.7789550063140152E+03
A611,   0.1071577204937727E-09
A612,   0.8231773659019195E+05
A613,   0.1050009677140692E+07
A614,   0.1209891516341411E-01
A615,   0.1686682706422417E-02
A616,   0.3438911816130324E-09
A617,   0.2441989591255851E-12
A618,   0.3043519580585904E+05
A619,   0.1918223226350207E-13
A620,   0.3446983192867918E-04
A621,   0.3446523510088201E+03
A622,   0.7979700393218594E+03
A623,   0.8731865412445935E-14
A624,   0.4370840498572373E-19
A625,   0.2944833937001476E+00
A626,   0.1348557750634568E-12
A627,   0.6750368395206559E-18
A628,   0.4548030051419025E+01
A629,   0.1283234832171518E-10
A630,   0.1037268883902057E-01
A631,   0.1017322120220641E-09
A632,   0.8223253871814289E-01
A633,   0.2293348848446985E-09
A634,   0.1853767791200916E+00
A635,   0.3569576332186979E+00
A636,   0.0000000000000000E+00
A637,   0.1808921107117228E+01
A638,   0.2545333606301416E+05
A639,   0.1689086656245595E+01
A640,   0.4293539590178599E-04
A641,   0.2836234988752061E-08
A642,   0.7944592305260910E-03
A643,   0.0000000000000000E+00
A644,   0.0000000000000000E+00
A645,   0.1074180515007043E-05
A646,   0.2849001957305408E-12
A647,   0.5845193854789035E-11
A648,   0.7293970604304297E-19
A649,   0.1441625574594696E-05
A650,   0.0000000000000000E+00
A651,   0.8834526049890720E-04
A652,   0.0000000000000000E+00
A653,   0.0000000000000000E+00
A654,   0.0000000000000000E+00
A655,   0.0000000000000000E+00
A656,   0.6605735306569498E-08
A657,   0.1797789272970839E-08
A658,   0.0000000000000000E+00
A659,   0.0000000000000000E+00
A660,   0.0000000000000000E+00
A661,   0.2238077967626876E-01
A662,   0.0000000000000000E+00
A663,   0.0000000000000000E+00
A664,   0.0000000000000000E+00
A665,   0.0000000000000000E+00
A666,   0.1758326258742208E-02
A667,   0.9081473600053109E-10
A668,   0.0000000000000000E+00
A669,   0.0000000000000000E+00
A670,   0.0000000000000000E+00
A671,   0.1003751585995901E-05
A672,   0.2149607956741996E-12
A673,   0.9033764273963111E-05
A674,   0.0000000000000000E+00
A675,   0.0000000000000000E+00
A676,   0.0000000000000000E+00
A677,   0.2862068404927127E-17
A678,   0.0000000000000000E+00
A679,   0.2283562948629758E-09
A680,   0.5005680574844495E-14
A681,   0.8562704552872646E+05
A682,   0.3609338297976244E+02
A683,   0.1769340488879759E+01
A684,   0.0000000000000000E+00
A685,   0.0000000000000000E+00
A686,   0.2191757337206514E-02
A687,   0.9533032828988268E-06
A688,   0.6657889655618817E-07
A689,   0.2022066262368885E+01
A690,   0.8796142282682334E-03
A691,   0.6154596556160044E-04
A692,   0.1043991718921468E+00
A693,   0.4542010191384892E-04
A694,   0.3183485601615590E-05
A695,   0.0000000000000000E+00
A696,   0.0000000000000000E+00
A697,   0.0000000000000000E+00
A698,   0.0000000000000000E+00
A699,   0.2842723232397293E-03
A700,   0.2612183643291028E+05
A701,   0.0000000000000000E+00
A702,   0.1480237397864916E+06
A703,   0.4405419527867512E+04
A704,   0.1014312842611429E-07
A705,   0.0000000000000000E+00
A706,   0.5747772774798096E-07
A707,   0.4139196340887163E-08
A708,   0.1856248534737026E+02
A709,   0.0000000000000000E+00
A710,   0.1051874169684315E+03
A711,   0.7531406042467406E+01
A712,   0.1489601946186687E+02
A713,   0.3922065423092101E+02
A714,   0.5684224063877433E-03
A715,   0.3101139634768223E-03
A716,   0.3967174383951592E-04
A717,   0.4639101978565379E-13
A718,   0.1431953016367722E-02
A719,   0.6093619121372813E+00
A720,   0.1449246726077255E+01
A721,   0.6134444060618438E+00
A722,   0.1756802082638263E-05
A723,   0.2163731895924224E-01
A724,   0.6329938088068282E-01
A725,   0.4052707251357372E-01
A726,   0.7204854928213757E-07
A727,   0.1220376564142316E-02
A728,   0.7773956993299871E-02
A729,   0.3234952662958038E-02
A730,   0.5378066184467710E-04
A731,   0.1494499283095760E+00
A732,   0.1592186331058342E-01
A733,   0.1000915955079963E-04
A734,   0.6302230986616882E-04
A735,   0.2356329664411779E-02
A736,   0.1026029941463008E-02
A737,   0.1091584298789858E+02
A738,   0.0000000000000000E+00
A739,   0.0000000000000000E+00
A740,   0.0000000000000000E+00
A741,   0.0000000000000000E+00
A742,   0.0000000000000000E+00
A743,   0.0000000000000000E+00
A744,   0.0000000000000000E+00
A745,   0.0000000000000000E+00
A746,   0.0000000000000000E+00
A747,   0.0000000000000000E+00
A748,   0.0000000000000000E+00
A749,   0.0000000000000000E+00
A750,   0.0000000000000000E+00
A751,   0.0000000000000000E+00
A752,   0.0000000000000000E+00
A753,   0.0000000000000000E+00
A754,   0.0000000000000000E+00
A755,   0.0000000000000000E+00
A756,   0.0000000000000000E+00
A757,   0.0000000000000000E+00
A758,   0.0000000000000000E+00
A759,   0.0000000000000000E+00
A760,   0.0000000000000000E+00
A761,   0.0000000000000000E+00
A762,   0.0000000000000000E+00
A763,   0.0000000000000000E+00
A764,   0.0000000000000000E+00
A765,   0.0000000000000000E+00
A766,   0.0000000000000000E+00
A767,   0.0000000000000000E+00
A768,   0.0000000000000000E+00
A769,   0.0000000000000000E+00
A770,   0.0000000000000000E+00
A771,   0.0000000000000000E+00
A772,   0.0000000000000000E+00
A773,   0.0000000000000000E+00
A774,   0.0000000000000000E+00
A775,   0.0000000000000000E+00
A776,   0.0000000000000000E+00
A777,   0.0000000000000000E+00
A778,   0.0000000000000000E+00
A779,   0.0000000000000000E+00
A780,   0.0000000000000000E+00
A781,   0.0000000000000000E+00
A782,   0.0000000000000000E+00
A783,   0.0000000000000000E+00
A784,   0.0000000000000000E+00
A785,   0.0000000000000000E+00
A786,   0.0000000000000000E+00
A787,   0.0000000000000000E+00
A788,   0.0000000000000000E+00
A789,   0.0000000000000000E+00
A790,   0.0000000000000000E+00
A791,   0.0000000000000000E+00
A792,   0.0000000000000000E+00
A793,   0.0000000000000000E+00
A794,   0.0000000000000000E+00
A795,   0.0000000000000000E+00
A796,   0.0000000000000000E+00
A797,   0.0000000000000000E+00
A798,   0.0000000000000000E+00
A799,   0.0000000000000000E+00
A800,   0.0000000000000000E+00
A801,   0.0000000000000000E+00
A802,   0.0000000000000000E+00
A803,   0.0000000000000000E+00
A804,   0.0000000000000000E+00
A805,   0.0000000000000000E+00
A806,   0.0000000000000000E+00
A807,   0.0000000000000000E+00
A808,   0.0000000000000000E+00
A809,   0.0000000000000000E+00
A810,   0.0000000000000000E+00
A811,   0.0000000000000000E+00
A812,   0.0000000000000000E+00
A813,   0.0000000000000000E+00
A814,   0.0000000000000000E+00
A815,   0.0000000000000000E+00
A816,   0.0000000000000000E+00
A817,   0.0000000000000000E+00
A818,   0.0000000000000000E+00
A819,   0.0000000000000000E+00
A820,   0.0000000000000000E+00
A821,   0.0000000000000000E+00
A822,   0.0000000000000000E+00
A823,   0.0000000000000000E+00
A824,   0.0000000000000000E+00
A825,   0.0000000000000000E+00
A826,   0.0000000000000000E+00
A827,   0.0000000000000000E+00
A828,   0.0000000000000000E+00
A829,   0.0000000000000000E+00
A830,   0.0000000000000000E+00
A831,   0.0000000000000000E+00
A832,   0.0000000000000000E+00
A833,   0.0000000000000000E+00
A834,   0.0000000000000000E+00
A835,   0.0000000000000000E+00
A836,   0.0000000000000000E+00
A837,   0.0000000000000000E+00
A838,   0.0000000000000000E+00
A839,   0.0000000000000000E+00
A840,   0.0000000000000000E+00
A841,   0.0000000000000000E+00
A842,   0.0000000000000000E+00
A843,   0.0000000000000000E+00
A844,   0.0000000000000000E+00
A845,   0.0000000000000000E+00
A846,   0.0000000000000000E+00
A847,   0.0000000000000000E+00
A848,   0.0000000000000000E+00
A849,   0.0000000000000000E+00
A850,   0.0000000000000000E+00
A851,   0.0000000000000000E+00
A852,   0.0000000000000000E+00
A853,   0.0000000000000000E+00
A854,   0.0000000000000000E+00
A855,   0.0000000000000000E+00
A856,   0.0000000000000000E+00
A857,   0.0000000000000000E+00
A858,   0.0000000000000000E+00
A859,   0.0000000000000000E+00
A860,   0.0000000000000000E+00
A861,   0.0000000000000000E+00
A862,   0.0000000000000000E+00
A863,   0.0000000000000000E+00
A864,   0.0000000000000000E+00
A865,   0.0000000000000000E+00
A866,   0.0000000000000000E+00
A867,   0.0000000000000000E+00
A868,   0.0000000000000000E+00
A869,   0.0000000000000000E+00
A870,   0.0000000000000000E+00
A871,   0.0000000000000000E+00
A872,   0.0000000000000000E+00
A873,   0.0000000000000000E+00
A874,   0.0000000000000000E+00
A875,   0.0000000000000000E+00
A876,   0.0000000000000000E+00
A877,   0.0000000000000000E+00
A878,   0.0000000000000000E+00
A879,   0.0000000000000000E+00
A880,   0.0000000000000000E+00
A881,   0.0000000000000000E+00
A882,   0.0000000000000000E+00
A883,   0.0000000000000000E+00
A884,   0.0000000000000000E+00
A885,   0.0000000000000000E+00
A886,   0.0000000000000000E+00
A887,   0.0000000000000000E+00
A888,   0.0000000000000000E+00
A889,   0.0000000000000000E+00
A890,   0.0000000000000000E+00
A891,   0.0000000000000000E+00
A892,   0.0000000000000000E+00
A893,   0.0000000000000000E+00
A894,   0.0000000000000000E+00

