
# Environment file to load before building and running GEOS-Chem Classic
# on the MSU Orion cluster
# - Lizzie Lundgren, GEOS-Chem Support Team, 27Jan2025

module purge

# Modules need to build and run GEOS-Chem Classic
module load intel-oneapi-compilers/2022.2.1
module load intel-oneapi-mpi/2021.7.1
module load hdf5/1.12.2
module load netcdf-c/4.9.0
module load netcdf-fortran/4.6.0

## Other potentially useful modules for analyses and code development
#module load intel-oneapi-mkl/2022.2.1
#module load hdf4/4.2.16
#module load r/4.2.2
#module load nco/5.0.1
#module load udunits/2.2.28
#module load zlib/1.2.13
#module load nco/5.0.1
#module load libszip/2.1.1
#module load ffmpeg/4.4.1
#module load ncl/6.6.2
#module load gdal/3.5.3
#module load gmt/6.2.0
#module load ghostscript/9.56.1
#module load imagemagick/7.0.8-7
#module load contrib noaatools
#module load python/3.10.8
#module load ncview

# Environment variables and settings needed for GEOS-Chem Classic
export CC=icx
export CXX=icx
export FC=ifort
export F77=${FC}
if [[ "x${NETCDF_HOME}" == "x" ]]; then
   export NETCDF_HOME="${NETCDF_C_HOME}"
fi
export NETCDF_C_ROOT="${NETCDF_HOME}"
export NETCDF_FORTRAN_ROOT="${NETCDF_FORTRAN_HOME}"

# Require memory settings
ulimit -c unlimited   # coredumpsize
ulimit -u 50000       # maxproc
ulimit -v unlimited   # vmemoryuse
ulimit -s unlimited   # stacksize
export OMP_STACKSIZE=500m