This run directory is for GEOS-Chem.

----------------------------------------------------
Instructions on setting up, compiling, and running GEOS-Chem:
----------------------------------------------------

  http://wiki.geos-chem.org/Getting_Started_with_GEOS-Chem


----------------------------------------------------
For additional information about GEOS-Chem, see:
----------------------------------------------------

  http://wiki.geos-chem.org/GEOS-Chem_overview	

  http://wiki.geos-chem.org/GEOS-Chem_basics


----------------------------------------------------
For help with GEOS-Chem, see:
----------------------------------------------------

  http://wiki.geos-chem.org/Guide_to_GEOS-Chem_error_messages

  http://wiki.geos-chem.org/Submitting_GEOS-Chem_support_requests
