#------------------------------------------------------------------------------
#          Harvard University Atmospheric Chemistry Modeling Group            !
#------------------------------------------------------------------------------
#BOP
#
# !MODULE: Makefile (in the GeosRad/ subdirectory)
#
# !DESCRIPTION: This makefile compiles the RAD codes.  
#  the MOD directory. 
#\\
#\\
# !REMARKS:
# To build the programs, call "make" with the following syntax:
#                                                                             .
#   make TARGET [ OPTIONAL-FLAGS ]
#                                                                             .
# To display a complete list of options, type "make help".
#                                                                             .
# %%%%%%%%%%%%%%%%%%%%%%%%%%%%%%%%%%%%%%%%%%%%%%%%%%%%%%%%%%%%%%%%%%%%%%%%%%%%
# %%% NOTE: Normally you will not have to call this Makefile directly,     %%%
# %%% it will be called automatically from the Makefile in the directory   %%%
# %%% just above this one!                                                 %%%
# %%%%%%%%%%%%%%%%%%%%%%%%%%%%%%%%%%%%%%%%%%%%%%%%%%%%%%%%%%%%%%%%%%%%%%%%%%%%
#                                                                             .
# Makefile uses the following variables:
#                                                                             .
# Variable   Description
# --------   -----------
# SHELL      Specifies the shell for "make" to use (usually SHELL=/bin/sh)
# ROOTDIR    Specifies the root-level directory of the GEOS-Chem code
# HDR        Specifies the directory where GEOS-Chem include files are found
# LIB        Specifies the directory where library files (*.a) are stored
# MOD        Specifies the directory where module files (*.mod) are stored
# AR         Sys var w/ name of library creator program (i.e., "ar", "ranlib")
# MAKE       Sys var w/ name of Make command (i.e, "make" or "gmake")
# R8         Interprets REAL as REAL*8
#
# !REVISION HISTORY: 
#  08 Aug 2012 - K. Cady-Pereira - Initial version
#  22 Aug 2012 - R. Yantosca     - Fixed typo in depend list for rrsw_kg24.o
#  22 Aug 2012 - R. Yantosca     - Added white space for readability
#EOP
#------------------------------------------------------------------------------
#BOC

# Define variables 
SHELL   = /bin/sh
ROOTDIR = ..
HDR     = $(ROOTDIR)/Headers
HELP    = $(ROOTDIR)/help
LIB     = $(ROOTDIR)/lib
MOD     = $(ROOTDIR)/mod
GEOSDIR = $(ROOTDIR)/GeosCore

# Sometimes we may need to compile RRTMG with a lower optimization setting,
# so use the OPT variable if necessary
OPT     = -O1 -override-limits

# Include header file.  This returns variables CC, F90, FREEFORM, LD, R8,
# as well as the default Makefile compilation rules for source code files.
include $(ROOTDIR)/Makefile_header.mk

#=============================================================================
# List of files to compile (the order is important!).  We specify these as
# a list of object files (*.o).  For each object file, the "make" utility
# will find the corresponding source code file (*.F) and compile it. 
#=============================================================================

# List of source files
SRC = $(wildcard *.f90)

# Replace .F and .F90 extensions with *.o
OBJ = $(SRC:.f90=.o)

#=============================================================================
# Makefile targets: type "make help" for a complete listing!
#=============================================================================

.PHONY: clean help

lib: $(OBJ)
	$(AR) crs librad.a $(OBJ)
	mv librad.a $(LIB)

clean:
	rm -f *.o *.mod

help:
	@$(MAKE) -c $(HELP)

debug:
	@echo "Obj:    $(OBJ)"
	@echo "Mod:    $(MOD)"
	@echo "FFLAGS: $(FFLAGS)"
	@echo "F90     $(F90)"

#=============================================================================
# Dependencies listing (grep "USE " to get the list of module references!)
#
# From this list of dependencies, the "make" utility will figure out the
# correct order of compilation (so we don't have to do that ourselves!)
#=============================================================================


parkind.o                : parkind.f90 
	$(F90) $(R8) -c $(OPT) $<


parrrtm.o                : parrrtm.f90             parkind.o 
	$(F90) $(R8) -c $(OPT) $<


rad_driver.o             : rad_driver.f90                                    \
                           parkind.o               parrrtm.o                 \
                           parrrsw.o               rrlw_con.o                \
                           rrtmg_lw_rad.nomcica.o  rrtmg_sw_rad.nomcica.o
	$(F90) $(R8) -c $(OPT) $<


rrlw_cld.o               : rrlw_cld.f90            parkind.o 
	$(F90) $(R8) -c $(OPT) $<


rrlw_con.o               : rrlw_con.f90            parkind.o 
	$(F90) $(R8) -c $(OPT) $<


rrlw_kg01.o              : rrlw_kg01.f90           parkind.o 
	$(F90) $(R8) -c $(OPT) $<


rrlw_kg02.o              : rrlw_kg02.f90           parkind.o 
	$(F90) $(R8) -c $(OPT) $<


rrlw_kg03.o              : rrlw_kg03.f90           parkind.o 
	$(F90) $(R8) -c $(OPT) $<


rrlw_kg04.o              : rrlw_kg04.f90           parkind.o 
	$(F90) $(R8) -c $(OPT) $<


rrlw_kg05.o               : rrlw_kg05.f90          parkind.o 
	$(F90) $(R8) -c $(OPT) $<


rrlw_kg06.o               : rrlw_kg06.f90          parkind.o 
	$(F90) $(R8) -c $(OPT) $<


rrlw_kg07.o               : rrlw_kg07.f90          parkind.o 
	$(F90) $(R8) -c $(OPT) $<


rrlw_kg08.o              : rrlw_kg08.f90           parkind.o 
	$(F90) $(R8) -c $(OPT) $<


rrlw_kg09.o              : rrlw_kg09.f90           parkind.o 
	$(F90) $(R8) -c $(OPT) $<


rrlw_kg10.o              : rrlw_kg10.f90           parkind.o 
	$(F90) $(R8) -c $(OPT) $<


rrlw_kg11.o              : rrlw_kg11.f90           parkind.o 
	$(F90) $(R8) -c $(OPT) $<


rrlw_kg12.o              : rrlw_kg12.f90           parkind.o 
	$(F90) $(R8) -c $(OPT) $<


rrlw_kg13.o              : rrlw_kg13.f90           parkind.o 
	$(F90) $(R8) -c $(OPT) $<


rrlw_kg14.o              : rrlw_kg14.f90           parkind.o 
	$(F90) $(R8) -c $(OPT) $<


rrlw_kg15.o              : rrlw_kg15.f90           parkind.o 
	$(F90) $(R8) -c $(OPT) $<


rrlw_kg16.o              : rrlw_kg16.f90           parkind.o 
	$(F90) $(R8) -c $(OPT) $<


rrlw_ncpar.o             : rrlw_ncpar.f90          parkind.o 
	$(F90) $(R8) -c $(OPT) $<

rrlw_ref.o               : rrlw_ref.f90            parkind.o 
	$(F90) $(R8) -c $(OPT) $<


rrlw_tbl.o               : rrlw_tbl.f90            parkind.o 
	$(F90) $(R8) -c $(OPT) $<


rrlw_vsn.o               : rrlw_vsn.f90 
	$(F90) $(R8) -c $(OPT) $<


rrlw_wvn.o               : rrlw_wvn.f90                                      \
                           parkind.o               parrrtm.o
	$(F90) $(R8) -c $(OPT) $<


rrtmg_lw_cldprop.o       : rrtmg_lw_cldprop.f90                              \
                           parkind.o               parrrtm.o                 \
                           rrlw_cld.o              rrlw_vsn.o
	$(F90) $(R8) -c $(OPT) $<


rrtmg_lw_init.o          : rrtmg_lw_init.f90                                 \
                           parkind.o               parrrtm.o                 \
                           rrlw_cld.o              rrlw_vsn.o                \
                           rrlw_wvn.o              rrlw_tbl.o                \
                           rrlw_con.o              rrtmg_lw_setcoef.o        \
                           rrlw_kg01.o             rrlw_kg02.o               \
                           rrlw_kg03.o             rrlw_kg04.o               \
                           rrlw_kg05.o             rrlw_kg06.o               \
                           rrlw_kg07.o             rrlw_kg08.o               \
                           rrlw_kg09.o             rrlw_kg10.o               \
                           rrlw_kg11.o             rrlw_kg12.o               \
                           rrlw_kg13.o             rrlw_kg14.o               \
                           rrlw_kg15.o             rrlw_kg16.o  
	$(F90) $(R8) -c $(OPT) $<


rrtmg_lw_k_g.o           : rrtmg_lw_k_g.f90                                  \
                           parkind.o               rrlw_vsn.o                \
                           rrlw_kg01.o             rrlw_kg02.o               \
                           rrlw_kg03.o             rrlw_kg04.o               \
                           rrlw_kg05.o             rrlw_kg06.o               \
                           rrlw_kg07.o             rrlw_kg08.o               \
                           rrlw_kg05.o             rrlw_kg06.o               \
                           rrlw_kg07.o             rrlw_kg08.o               \
                           rrlw_kg09.o             rrlw_kg10.o               \
                           rrlw_kg11.o             rrlw_kg12.o               \
                           rrlw_kg13.o             rrlw_kg14.o               \
                           rrlw_kg15.o             rrlw_kg16.o   
	$(F90) $(R8) -c $(OPT) $<


rrtmg_lw_rad.nomcica.o   : rrtmg_lw_rad.nomcica.f90                          \
                           parkind.o               parrrtm.o                 \
                           rrlw_cld.o              rrlw_vsn.o                \
                           rrlw_wvn.o              rrlw_tbl.o                \
                           rrlw_con.o              rrtmg_lw_setcoef.o        \
                           rrtmg_lw_taumol.o       rrtmg_lw_rtrn.o           \
                           rrtmg_lw_rtrnmr.o       rrlw_wvn.o                \
                           rrlw_tbl.o              rrtmg_lw_cldprop.o
	$(F90) $(R8) -c $(OPT) $<


rrtmg_lw_rtrn.o          : rrtmg_lw_rtrn.f90                                 \
                           parkind.o               parrrtm.o                 \
                           rrlw_vsn.o              rrlw_wvn.o                \
                           rrlw_tbl.o              rrlw_con.o   
	$(F90) $(R8) -c $(OPT) $<


rrtmg_lw_rtrnmr.o        : rrtmg_lw_rtrnmr.f90                               \
                           parkind.o               parrrtm.o                 \
                           rrlw_vsn.o              rrlw_wvn.o                \
                           rrlw_tbl.o              rrlw_con.o   
	$(F90) $(R8) -c $(OPT) $<


rrtmg_lw_setcoef.o       : rrtmg_lw_setcoef.f90                              \
                           parkind.o               parrrtm.o                 \
                           rrlw_vsn.o              rrlw_wvn.o                \
                           rrlw_ref.o     
	$(F90) $(R8) -c $(OPT) $<


rrtmg_lw_taumol.o        : rrtmg_lw_taumol.f90                               \
                           parkind.o               rrlw_vsn.o                \
                           rrlw_vsn.o              rrlw_wvn.o                \
                           rrlw_con.o              rrlw_ref.o                \
                           rrlw_kg01.o             rrlw_kg02.o               \
                           rrlw_kg03.o             rrlw_kg04.o               \
                           rrlw_kg05.o             rrlw_kg06.o               \
                           rrlw_kg07.o             rrlw_kg08.o               \
                           rrlw_kg09.o             rrlw_kg10.o               \
                           rrlw_kg11.o             rrlw_kg12.o               \
                           rrlw_kg13.o             rrlw_kg14.o               \
                           rrlw_kg15.o             rrlw_kg16.o  
	$(F90) $(R8) -c $(OPT) $<


parrrsw.o                : parrrsw.f90             parkind.o
	$(F90) $(R8) -c $(OPT) $<


rrsw_aer.o               : rrsw_aer.f90                                      \
                           parkind.o               parrrsw.o
	$(F90) $(R8) -c $(OPT) $<


rrsw_cld.o               : rrsw_cld.f90            parkind.o
	$(F90) $(R8) -c $(OPT) $<



rrsw_con.o               : rrsw_con.f90            parkind.o
	$(F90) $(R8) -c $(OPT) $<


rrsw_kg16.o              : rrsw_kg16.f90                                     \
                           parkind.o               parrrsw.o
	$(F90) $(R8) -c $(OPT) $<


rrsw_kg17.o              : rrsw_kg17.f90                                     \
                           parkind.o               parrrsw.o
	$(F90) $(R8) -c $(OPT) $<


rrsw_kg18.o              : rrsw_kg18.f90                                     \
                           parkind.o               parrrsw.o
	$(F90) $(R8) -c $(OPT) $<


rrsw_kg19.o              : rrsw_kg19.f90                                     \
                           parkind.o               parrrsw.o
	$(F90) $(R8) -c $(OPT) $<


rrsw_kg20.o              : rrsw_kg20.f90                                     \
                           parkind.o               parrrsw.o
	$(F90) $(R8) -c $(OPT) $<


rrsw_kg21.o              : rrsw_kg21.f90                                     \
                           parkind.o               parrrsw.o
	$(F90) $(R8) -c $(OPT) $<


rrsw_kg22.o              : rrsw_kg22.f90                                     \
                           parkind.o               parrrsw.o
	$(F90) $(R8) -c $(OPT) $<


rrsw_kg23.o              : rrsw_kg23.f90                                     \
                           parkind.o               parrrsw.o
	$(F90) $(R8) -c $(OPT) $<


rrsw_kg24.o              : rrsw_kg24.f90                                     \
                           parkind.o               parrrsw.o
	$(F90) $(R8) -c $(OPT) $<


rrsw_kg25.o              : rrsw_kg25.f90                                     \
                           parkind.o               parrrsw.o
	$(F90) $(R8) -c $(OPT) $<


rrsw_kg26.o              : rrsw_kg26.f90                                     \
                           parkind.o               parrrsw.o
	$(F90) $(R8) -c $(OPT) $<


rrsw_kg27.o              : rrsw_kg27.f90           parkind.o                 \
                           parrrsw.o
	$(F90) $(R8) -c $(OPT) $<


rrsw_kg28.o              : rrsw_kg28.f90                                     \
                           parkind.o               parrrsw.o
	$(F90) $(R8) -c $(OPT) $<


rrsw_kg29.o              : rrsw_kg29.f90                                     \
                           parkind.o               parrrsw.o
	$(F90) $(R8) -c $(OPT) $<


rrsw_ref.o               : rrsw_ref.f90            parkind.o
	$(F90) $(R8) -c $(OPT) $<


rrsw_tbl.o               : rrsw_tbl.f90            parkind.o
	$(F90) $(R8) -c $(OPT) $<


rrsw_vsn.o               : rrsw_vsn.f90
	$(F90) $(R8) -c $(OPT) $<


rrsw_wvn.o               : rrsw_wvn.f90                                      \
                           parkind.o               parrrsw.o
	$(F90) $(R8) -c $(OPT) $<


rrtmg_sw_cldprop.o       : rrtmg_sw_cldprop.f90                              \
                           parkind.o               parrrsw.o                 \
                           rrsw_cld.o              rrsw_wvn.o                \
                           rrsw_vsn.o
	$(F90) $(R8) -c $(OPT) $<


rrtmg_sw_init.o          : rrtmg_sw_init.f90                                 \
                           parkind.o               parrrsw.o                 \
                           rrsw_cld.o              rrsw_wvn.o                \
                           rrsw_vsn.o              rrsw_tbl.o                \
                           rrsw_con.o              rrsw_aer.o                \
                           rrsw_con.o              rrtmg_sw_setcoef.o        \
                           rrsw_kg16.o             rrsw_kg17.o               \
                           rrsw_kg18.o             rrsw_kg19.o               \
                           rrsw_kg20.o             rrsw_kg21.o               \
                           rrsw_kg22.o             rrsw_kg23.o               \
                           rrsw_kg24.o             rrsw_kg25.o               \
                           rrsw_kg26.o             rrsw_kg27.o               \
                           rrsw_kg28.o             rrsw_kg29.o
	$(F90) $(R8) -c $(OPT) $<


rrtmg_sw_k_g.o           : rrtmg_sw_k_g.f90                                  \
                           parkind.o               rrsw_kg16.o               \
                           rrsw_kg17.o             rrsw_kg18.o               \
                           rrsw_kg19.o             rrsw_kg20.o               \
                           rrsw_kg21.o             rrsw_kg22.o               \
                           rrsw_kg23.o             rrsw_kg24.o               \
                           rrsw_kg25.o             rrsw_kg26.o               \
                           rrsw_kg27.o             rrsw_kg28.o               \
                           rrsw_kg29.o
	$(F90) $(R8) -c $(OPT) $<


rrtmg_sw_rad.nomcica.o   : rrtmg_sw_rad.nomcica.f90                          \
                           parkind.o               parrrsw.o                 \
                           rrsw_wvn.o              rrsw_vsn.o                \
                           rrsw_con.o              rrsw_aer.o                \
                           rrsw_con.o              rrtmg_sw_cldprop.o        \
                           rrtmg_sw_init.o         rrtmg_sw_setcoef.o        \
                           rrtmg_sw_spcvrt.o
	$(F90) $(R8) -c $(OPT) $<


rrtmg_sw_reftra.o        : rrtmg_sw_reftra.f90                               \
                           parkind.o               rrsw_vsn.o                \
                           rrsw_tbl.o
	$(F90) $(R8) -c $(OPT) $<


rrtmg_sw_setcoef.o       : rrtmg_sw_setcoef.f90                              \
                           parkind.o               rrsw_vsn.o                \
                           rrsw_tbl.o              parrrsw.o                 \
                           rrsw_ref.o
	$(F90) $(R8) -c $(OPT) $<


rrtmg_sw_spcvrt.o        : rrtmg_sw_spcvrt.f90                               \
                           parkind.o               parrrsw.o                 \
                           rrsw_wvn.o              rrsw_vsn.o                \
                           rrsw_tbl.o              rrtmg_sw_reftra.o         \
                           rrtmg_sw_taumol.o       rrtmg_sw_vrtqdr.o
	$(F90) $(R8) -c $(OPT) $<


rrtmg_sw_taumol.o        : rrtmg_sw_taumol.f90                               \
                           parkind.o               parrrsw.o                 \
                           rrsw_con.o              rrsw_wvn.o                \
                           rrsw_vsn.o              rrsw_kg16.o               \
                           rrsw_kg17.o             rrsw_kg18.o  	     \
                           rrsw_kg19.o             rrsw_kg20.o   	     \
                           rrsw_kg21.o             rrsw_kg22.o  	     \
                           rrsw_kg23.o             rrsw_kg24.o   	     \
                           rrsw_kg25.o             rrsw_kg26.o  	     \
                           rrsw_kg27.o             rrsw_kg28.o               \
                           rrsw_kg29.o
	$(F90) $(R8) -c $(OPT) $<


rrtmg_sw_vrtqdr.o        : rrtmg_sw_vrtqdr.f90                               \
                           parkind.o               parrrsw.o
	$(F90) $(R8) -c $(OPT) $<


#EOC
