List of Developers for GEOS-Chem, GCHP, HEMCO, and Related Software
(26 Oct 2022)
===============================================================================

Peter Adams
Becky Alexander
Matthew Alvarado
Helen Amos
Helene Angot
Stina Ausmeel
Marion Auvray
Sabour Baray
Michael Barkley
Steven Barret
Brice Barret
Kelvin Bates
Isabelle Bey
Liam Bindle
Folkert Boersma
Sreekanth Bojjagani
Eimy Bonilla
Benoit Bovy
Kevin Bowman
Brian Boys
Erika Brattich
Tom Breider
Jared Brewer
Ellie Browne
Benjamin Brown-Steiner
Beata Bukosa
Christopher Butenhoff
Karen Cady-Pereira
Philip Cameron-Smith
Patrick Campbell
Liangzhong Cao
Guofeng Cao
Yi Cao
Shannon Capps
Claire Carouge
Therese Carter
Maria Cazorla
Sreelekha Chaliyakunnel
Han Chen
Jing Chen
Long Chen
Qi Chen
Qianjie Chen
Xin Chen
Yang Chen
Yunsoo Choi
Kenneth Christian
Tom Clune
Matt Cooper
Bess Corbitt
Betty Croft
Xochitl Cruz
Gabriele Curci
Jordi Dachs
Yanko Davila
Feng Deng
Priyanka deSouza
Max Desservettaz
Nicholas Deutscher
Maurizio di Pierro
Aurelien Dommergue
Will Downs
Easan Drury
Bryan Duncan
Sebastian Eastham
Raluca Ellis
Joseph Enberg
Lucas Estrada
Mathew Evans
T. Duncan Fairlie
Sal Farina
Vivian Faye
Ari Feinberg
Brendan Field
Arlene Fiore
Emily Fischer
Jenny Fisher
Charley Fite
Eric Fleming
Judit Flo-Gaya
Bonne Ford
Timmy Francis
Lyssa Freese
Carey Friedman
Thibaud Fritz
Tzung-May Fu
Joshua Fu
Brett Gantt
Cui Ge
Jeffrey Geddes
Amanda Giang
Christos Giannakopoulos
Harriet Gounia
Edward Graef
Jesse Greenslade
Xiaoguang Gu
Melanie Hammer
Jessica Haskins
Cenlin He
Colette Heald
Barron Henderson
Daven Henze
Wai Ho-Lo
Myroslav Hordiichuk
Christopher Holmes
Hannah Horowitz
Zahra Hosseni
Lu Hu
Jianping Huang
Jiayue Huang
Kohei Ikeda
Daniel Jacob
Andy Jacobson
Marc Jacobson
Lyatt Jaegle
Ruud Jansen
Weiyuan Jiang
Zhe Jiang
Lixu Jin
Matthew Johnson
Dylan Jones
Jaegun Jung
Prasad Kasibhatla
Rynda Hudman Kay
Christoph Keller
Tetsuro Kikuchi
Hyeonmin Kim
Sungshik Kim
Nutthida Kitwiroon
Jack Kodros
Jamin Koo
Monika Kopacz
Shannon Koplitz
Jules Kouatchou
Stefanie Kremser
Forrest Lacey
Carmen Lamencusa
Lok Lamsal
Kateryna Lapina
Kelsey Larson
David Lary
Robyn Latimer
Philippe Le Sager
Chulkyu Lee
Colin Lee
Meemong Lee
Ralph Lehmann
Eric Leibensperger
Maud Leriche
Fok-Yan Leung
Bengang Li
Chi Li
Ke Li
Qinbin Li
Xianglan Li
Yanshun Li
K. J. Liao
Qing Liang
Hong Liao
Haipeng Lin
Jintai Lin
Shian-Jiann Lin
John Linford
Hongyu Liu
Jane Liu
Junhua Liu
Pengfei Liu
Tina Liu
Yang Liu
Ying Liu
Jennifer Logan
Mike Long
Xiao Lu
Lizzie Lundgren
Gan Luo
J.D. (Bram) Maasakkers
Helen Macintyre
Dave MacKenzie
Emmanuel Mahieu
Jingqiu Mao
Eloise Marais
Marguerite Marks
Arjen Markus
Randall Martin
Maggie Marvin
Erin McDuffie
Dana McGuffin
Chris McLinden
Hongjian Meng
Jun Meng
Nicholas Meskhidze
Natallia Miatselskaya
Loretta Mickley
Christopher Chan Miller
Dylan Millet
Kai Ming
Jonathan Moch
Neil Moore
Jessica Morena
Gabriel Morin
Eleanor Morris
Mingquan Mu
Killian Murphy
Lee Murray
Jun Nam
Ray Nassar
Brian Nathan
Athanasios Nenes
Cynthia Nevison
Eric Nielsen
Justus Notholt
Kate O'Dell
Sachiko Okamoto
Neil Page
Sidhant Pai
Paul Palmer
Nick Parazoo
Justin Parella
Rokjin Park
Mark Parrington
Fabien Paulot
Sajeev Philip
Christopher Pickett-Heaps
Jeff Pierce
Will Porter
Ryan Pound
Michael Prather
Anna Protonatariou
Bill Putman
Havala Pye
Asif Qureshi
Emily Ramnarine
James Randerson
Cynthia Randles
Francois Ravetta
Wes Reinhart
David Ridley
Umberto Rizza
Daniel Rothenberg
Sarah Safieddine
Adrian Sandu
Mauricio Santillana
Bastien Sauvage
Tia Scarpelli
Luke Schiferl
Johan Schmidt
Martin Schultz
Rebecca Schwantes
Paolo Sebastianelli
Noelle Selin
Michael Seymour
Viral Shah
Jingyuan Shao
Lu Shen
Tomas Sherwen
Sam Silva
Nicole Smith-Downey
Anne Laerke Soerensen
Eric Sofen
Shaojie Song
Yu Song
Dominick Spracklen
Ilya Stanevich
Stephen Steenrod
Rebecca Stern
Robin Stevens
David Streets
Sarah Strode
Flora Su
Melissa Sulprizio
Minmin Sun
Elsie Sunderland
Parvada Suntharalingam
Luke Surl
Bethany Sutherland
Kimito Suto
Monika Szelag
Amos Tai
Hiroshi Tanimoto
John Tannahill
Shu Tao
Colin Thackray
Matt Thompson
Thibaud Thonat
Rong Tian
Maria Tombrou
Katherine Travis
Atanas Trayanov 
Win Trivitayanurak
Corey Trujillo
Paolo Tuccella
Alexander Turner
Solene Turquety
Zitely Tzompa-Sosa
Nadine Unger
Maria Val-Martin
Aaron van Donkelaar
Kostas Varotsos
Geert Vinken
Kristina Wagstrom
Thomas Walker
James Wang
Jun Wang
Qiaoqiao Wang
Xuan Wang
Xiaoli Wang
Yuhang Wang
Yuting Wang
Yuxuan Wang
Zifa Wang
Kevin Wecht
Richard Weidner
Debra Weisenstein
Kelley Wells
Hongjian Weng
Dan Westervelt
Cynthia Whaley
Christine Wiedinmyer
Oliver Wild
Ingo Wohltmann
Shiliang Wu
Shiliang Wu
Yaping Xiao
Junwei Xu
Yingying Yan
Matt Yannetti
Bob Yantosca
Jack Yatteau
Keiya Yumimoto
Karen Yu
Fangqun Yu
Xu Yue
Xuyan Yue
Maria Zatko
Shixian Zhai
Shuting Zhai
Bo Zhang
Chi Zhang
Hongliang Zhang
Jiawei Zhang
Li Zhang
Lin Zhang
Qiang Zhang
Yanxu Zhang
Lei Zhu
Liye Zhu
Jiawei Zhuang
Quanlai Zhuang
Peter Zoogman
