List of Developers for GEOS-Chem, HEMCO, and Related Software (05 Feb 2020)
===============================================================================

Peter Adams
Becky Alexander
Matthew Alvarado
Helen Amos
Helene Angot
Stina Ausmeel
Marion Auvray
Sabour Baray
Michael Barkley
Steven Barret
Brice Barret
Kelvin Bates
Isabelle Bey
Folkert Boersma
Sreekanth Bojjagani
Benoit Bovy
Kevin Bowman
Brian Boys
Erika Brattich
Tom Breider
Jared Brewer
Ellie Browne
Benjamin Brown-Steiner
Beata Bukosa
Christopher Butenhoff
Karen Cady-Pereira
Philip Cameron-Smith
Liangzhong Cao
Guofeng Cao
Shannon Capps
Claire Carouge
Therese Carter
Maria Cazorla
Sreelekha Chaliyakunnel
Han Chen
Jing Chen
Long Chen
Qi Chen
Qianjie Chen
Xin Chen
Yang Chen
Yunsoo Choi
Kenneth Christian
Matt Cooper
Bess Corbitt
Betty Croft
Xochitl Cruz
Gabriele Curci
Jordi Dachs
Yanko Davila
Feng Deng
Priyanka deSouza
Max Desservettaz
Nicholas Deutscher
Maurizio di Pierro
Aurelien Dommergue
Easan Drury
Bryan Duncan
Sebastian Eastham
Raluca Ellis
Joseph Enberg
Mathew Evans
T. Duncan Fairlie
Sal Farina
Vivian Faye
Brendan Field
Arlene Fiore
Emily Fischer
Jenny Fisher
Charley Fite
Eric Fleming
Judit Flo-Gaya
Bonne Ford
Timmy Francis
Carey Friedman
Tzung-May Fu
Joshua Fu
Brett Gantt
Cui Ge
Jeffrey Geddes
Amanda Giang
Christos Giannakopoulos
Edward Graef
Jesse Greenslade
Xiaoguang Gu
Melanie Hammer
Jessica Haskins
Cenlin He
Colette Heald
Barron Henderson
Daven Henze
Wai Ho-Lo
Myroslav Hordiichuk
Christopher Holmes
Hannah Horowitz
Zahra Hosseni
Lu Hu
Jianping Huang
Jiayue Huang
Rynda Hudman Kay
Hyeonmin Kim
Kohei Ikeda
Daniel Jacob
Andy Jacobson
Marc Jacobson
Lyatt Jaegle
Ruud Jansen
Zhe Jiang
Matthew Johnson
Dylan Jones
Jaegun Jung
Prasad Kasibhatla
Christoph Keller
Tetsuro Kikuchi
Sungshik Kim
Nutthida Kitwiroon
Jack Kodros
Jamin Koo
Monika Kopacz
Shannon Koplitz
Jules Kouatchou
Stefanie Kremser
Forrest Lacey
Carmen Lamencusa
Lok Lamsal
Kateryna Lapina
Kelsey Larson
David Lary
Philippe Le Sager
Chulkyu Lee
Meemong Lee
Ralph Lehmann
Eric Leibensperger
Maud Leriche
Fok-Yan Leung
Bengang Li
Chi Li
Ke Li
Qinbin Li
Xianglan Li
K. J. Liao
Qing Liang
Hong Liao
Hiapeng Lin
Jintai Lin
Shian-Jiann Lin
John Linford
Hongyu Liu
Jane Liu
Junhua Liu
Pengfei Liu
Yang Liu
Ying Liu
Jennifer Logan
Mike Long
Lizzie Lundgren
Gan Luo
J.D. (Bram) Maasakkers
Helen Macintyre
Dave MacKenzie
Emmanuel Mahieu
Jingqiu Mao
Eloise Marais
Marguerite Marks
Arjen Markus
Randall Martin
Erin McDuffie
Chris McLinden
Hongjian Meng
Nicholas Meskhidze
Natallia Miatselskaya
Loretta Mickley
Christopher Chan Miller
Dylan Millet
Kai Ming
Jonathan Moch
Neil Moore
Jessica Morena
Gabriel Morin
Eleanor Morris
Mingquan Mu
Killian Murphy
Lee Murray
Jun Nam
Ray Nassar
Brian Nathan
Athanasios Nenes
Cynthia Nevison
Eric Nielsen
Justus Notholt
Kate O'Dell
Sachiko Okamoto
Neil Page
Paul Palmer
Nick Parazoo
Justin Parella
Rokjin Park
Mark Parrington
Fabien Paulot
Sajeev Philip
Christopher Pickett-Heaps
Jeff Pierce
Will Porter
Michael Prather
Anna Protonatariou
Havala Pye
Asif Qureshi
Emily Ramnarine
James Randerson
Cynthia Randles
Francois Ravetta
Wes Reinhart
David Ridley
Umberto Rizza
Daniel Rothenberg
Sarah Safieddine
Adrian Sandu
Mauricio Santillana
Bastien Sauvage
Luke Schiferl
Johan Schmidt
Martin Schultz
Rebecca Schwantes
Noelle Selin
Michael Seymour
Viral Shah
Jingyuan Shao
Lu Shen
Tomas Sherwen
Sam Silva
Nicole Smith-Downey
Anne Laerke Soerensen
Eric Sofen
Shaojie Song
Yu Song
Dominick Spracklen
Ilya Stanevich
Rebecca Stern
David Streets
Sarah Strode
Flora Su
Melissa Sulprizio
Minmin Sun
Elsie Sunderland
Parvada Suntharalingam
Luke Surl
Kimito Suto
Amos Tai
Hiroshi Tanimoto
John Tannahill
Shu Tao
Colin Thackray
Thibaud Thonat
Rong Tian
Maria Tombrou
Katherine Travis
Win Trivitayanurak
Corey Trujillo
Paolo Tuccella
Alexander Turner
Solene Turquety
Zitely Tzompa-Sosa
Nadine Unger
Maria Val-Martin
Aaron van Donkelaar
Kostas Varotsos
Geert Vinken
Kristina Wagstrom
Thomas Walker
Qiaoqiao Wang
Jun Wang
Xuan Wang
Yuxuan Wang
James Wang
Yuting Wang
Zifa Wang
Yuhang Wang
Xiaoli Wang
Kevin Wecht
Richard Weidner
Debra Weisenstein
Kelley Wells
Dan Westervelt
Cynthia Whaley
Christine Wiedinmyer
Oliver Wild
Ingo Wohltmann
Shiliang Wu
Shiliang Wu
Yaping Xiao
Yingying Yan
Matt Yannetti
Bob Yantosca
Jack Yatteau
Keiya Yumimoto
Karen Yu
Fangqun Yu
Xu Yue
Maria Zatko
Shuting Zhai
Li Zhang
Bo Zhang
Jiawei Zhang
Yanxu Zhang
Lin Zhang
Chi Zhang
Hongliang Zhang
Qiang Zhang
Liye Zhu
Lei Zhu
Jiawei Zhuang
Quanlai Zhuang
Peter Zoogman
