List of GEOS-Chem developers (19 Sep 2017)

Bob Yantosca
Melissa Sulprizio
Lizzie Lundgren
Mike Long
Christoph Keller
Seb Eastham
Judit Flo-Gaya
Jack Yatteau
Jiawei Zhuang
Mike Long
Matt Cooper
Matt Yannetti
Shaojie Solng
Carey Friedman
T. Duncan Fairlie
Brett Gantt
Daven Henze
Li Zhang
Melanie Hammer
Qiaoqiao Wang
David Ridley
Shiliang Wu
Bram Maasakkers
Jane Liu
Dylan Jones
Loretta Mickley
Jonathan Moch
Christine Wiedenmyer
Zitely Tzompa-Susa
Bo Zhang
Amos Tai
Maria Zatko
Fabien Paulot
Betty Croft
Chi Li
Jun Wang
Karen Yu
Helene Angot
Rebecca Stern
Colin Thackray
Hannah Horowitz
Becky Alexander
Lee Murray
Xuan Wang
Lei Zhu
Johan Schmidt
Tomas Sherwen
Win Trivitayanurak
Jeff Pierce
Peter Adams
Jack Kodros
Amanda Giang
Paolo Tuccella
Christopher Chan Miller
Tom Breider
Rebecca Schwantes
Sarah Saffedine
Eloise Marais
Sal Farina
Jenny Fisher
Randall Martin
Aaron van Donkelaar
Jiawei Zhang
Jules Kouatchou
Arjen Markus
Jessica Morena 
Brian Boys 
Prasad Kasibhatla
Qianjie Chen
Viral Shah
Katie Travis
Emily Fischer
Barron Henderson
Mat Evans
Philippe Le Sager
Claire Carouge
Sajeev Philip
Christopher Pickett-Heaps
Shannon Koplitz
Yanxu Zhang
Ray Nassar
Jared Brewer
Hongyu Liu
Will Porter
Colette Heald
Meemong Liee
Richard Weidner
Kevin Bowman
Jaegun Jung
Xin Chen
Yuxuan Wang
Lin Zhang
John Tannahill
Isabelle Bey
Bryan Duncan
Fangqun Yu
Gan Luo
Luke Schiferl
Anna Protonatariou
Eric Nielsen
Paul Palmer
Rokjin Park
Arlene Fiore
Brendan Field
Jintai Lin
Cenlin He
Qinbin Li
Rynda Hudman Kay
Neil Moore
Lyatt Jaegle
Bess Corbitt
Justin Parella
Noelle Selin
Tzung-May Fu
Yuxuan Wang
Ellie Browne
Dylan Millet
Sungshik (Patrick) Kim
Jingqiu Mao
Wai Ho-Lo
Geert Vinken
Thibaud Thonat
Kevin Wecht
James Wang
Steven Barret
Debra Weisenstein
Havala Pye
Yanko Davila
Gabriele Curci
Kai Ming Wai
Luke Surl
Marguerite Marks
Helen Amos
Eric Leibensperger
Lok Lamsal
David Streets
John Linford
Adrian Sandu
Jamin Koo
Wes Reinhart
Shannon Capps
Mauricio Santillana
Mark Parrington
Michael Barkley
Nicole Smith-Downey
Elsie Sunderland
Eric Sofen
Helen Macintyre
Anne Laerke Soerensen
Joseph Enberg
Athanasios Nenes
Dan Westervelt
Marc Jacobson
Chris McLinden
Philip Cameron-Smith
Michael Prather
Oliver Wild
Zhe Jiang
Shian-Jiann (S-J) Lin
Jun Nam
Chulkyu Lee
Gabriel Morin
Xiaoguang Gu
Jennifer Logan
Folkert Boersma
Bastien Sauvage
Maria Val-Martin
Sarah Strode
Marion Auvray
Qing Liang
Parvada Suntharalingam
Yaping Xiao
Martin Schultz
Matthew Alvarado
Jordi Dachs
Easan Drury
Raluca Ellis
Lu Hu
Monika Kopacz
Fok-Yan Leung
Maud Leriche
Junhua Liu
Asif Qureshi
Francois Ravetta
Dominick Spracklen
Hiroshi Tanimoto
Keiya Ymmimoto
Solene Turquety
Nadine Unger
Xu Yue
Peter Zoogman
Ralph Lehmann
Ingo Wohltmann
K. J. Liao
Karen Cady-Pereira
Xianglan Li
Minmin Sun
Stefanie Kremser
Jeffrey Geddes
Justus Notholt
Yuting Wang
James Randerson
Yang Chen
Mingquan Mu
Hong Liao
Zifa Wang
Chi Zhang
Liangzhong Cao
Cynthia Nevison
Liye (Juliet) Zhu
Jared Brewer
Carmen Lamencusa
Kristina Wagstrom
Yuhang Wang
Yang Liu
Cynthia Randles
Yunsoo Choi
Sreekanth Bojjagani
Umberto Rizza
Tetsuro Kikuchi
Nutthida Kitwiroon
Myroslav Hordiichuk
Aurelien Dommergue
Vivian Faye McNeill
Emmanuel Mahieu
Benoit Bovy
Hongliang Zhang
Stina Ausmeel
Bonne Ford
Kateryna Lapina
Qi Chen
Ruud Jansen
Sam Silva
Flora Su
Priyanka deSouza
Daniel Rothenberg
Benjamin Brown-Steiner
Shiliang Wu
Sreelekha Chaliyakunnel
Kelley Wells
Matthew Johnson
Erika Brattich
Kohei Ikeda
Sachiko Okamoto
Kimito Suto
Christos Giannakopoulos
Maria Tombrou
Kostas Varotsos
Timmy Francis
Nicholas Meskhidze
Brice Barret
Bengang Li
Xiaoli Wang
Yu Song
Shu Tao
Han Chen
Long Chen
Kenneth Christian
Christopher Butenhoff
Quanlai Zhuang
Zahra Hosseni
Joshua Fu
David Lary
Brian Nathan
Edward Graef
Guofeng Cao
Ying Liu
Jing Chen
Dylan Jones
Feng Deng
Dave MacKenzie
Nick Parazoo
Ilya Stanevich
Thomas Walker
Cynthia Whaley
Michael Seymour
Qiang Zhang
Xochitl Cruz Nunez
Maria Cazorla
Maurizio di Piero
Jessica Haskins
Kelsey Larson
Nicholas Deutscher
Jesse Greenslade
Beata Bukosa
Neil Page
Max Desservettaz
Jianping Huang
Killian Murphy
Sabour Baray

