List of Developers for GEOS-Chem, HEMCO, and Related Software
(11 Jul 2023)
===============================================================================

ADAMS, Peter
ALEXANDER, Becky
ALVARADO, Matthew
AMOS, Helen
ANGOT, Helene
AUSMEEL, Stina
AUVRAY, Marion
BALASUS, Nicholas
BARAY, Sabour
BARKLEY, Michael
BARRET, Steven
BARRET, Brice
BATES, Kelvin
BEY, Isabelle
BINDLE, Liam
BOERSMA, Folkert
BOJJAGANI, Sreekanth
BONILLA, Eimy
BOVY, Benoit
BOWMAN, Kevin
BOYS, Brian
BRATTICH, Erika
BREIDER, Tom
BREWER, Jared
BROWNE, Ellie
BROWN-STEINER, Benjamin
BUKOSA, Beata
BUTENHOFF, Christopher
CADY-PEREIRA, Karen
CAMERON-SMITH, Philip
CAMPBELL, Patrick
CAO, Guofeng
CAO, Hansen
CAO, Liangzhong
CAO, Yi
CAPPS, Shannon
CAROUGE, Claire
CARTER, Therese (Tess)
CAZORLA, Maria
CHALIYAKUNNEL, Sreelekha
CHAN MILLER, Christopher
CHEN, Han
CHEN, Jing
CHEN, Long
CHEN, Qi
CHEN, Qianjie
CHEN, Xin
CHEN, Yang
CHOI, Yunsoo
CHRISTIAN, Kenneth
CLUNE, Tom
COOPER, Matt
CORBITT, Bess
CROFT, Betty
CRUZ, Xochitl
CURCI, Gabriele
DACHS, Jordi
DAVILA, Yanko
DELWICHE, Kyle
DENG, Feng
DESOUZA, Priyanka
DESSERVETTAZ, Max
DEUTSCHER, Nicholas
DI PIERRO, Maurizio
DLAMINI, Thandolwethu 
DOMMERGUE, Aurelien
DOWNS, Will
DRURY, Easan
DUNCAN, Bryan
EASTHAM, Sebastian
ELLIS, Raluca
ENBERG, Joseph
ESTRADA, Lucas
EVANS, Mathew
FAIRLIE, T. Duncan
FARINA, Sal
FAYE, Vivian
FEINBERG, Ari
FIELD, Brendan
FIORE, Arlene
FISCHER, Emily
FISHER, Jenny
FITE, Charley
FLEMING, Eric
FLO GAYA, Judit
FORD, Bonne
FRANCIS, Timmy
FREESE, Lyssa
FRIEDMAN, Carey
FRITZ, Thibaud
FU, Tzung-May
FU, Joshua
GANTT, Brett
GE, Cui
GEDDES, Jeffrey
GIANG, Amanda
GIANNAKOPOULOS, Christos
GOUNIA, Harriet
GRAEF, Edward
GREENSLADE, Jesse
GU, Xiaoguang
HAMMER, Melanie
HASKINS, Jessica
HE, Cenlin
HE, Jourdan
HEALD, Colette
HENDERSON, Barron
HENZE, Daven
HO, Wai-Lo
HORDIICHUK, Myroslav
HOLMES, Christopher
HOROWITZ, Hannah
HOSSENI, Zahra
HU, Lu
HUANG, Jianping
HUANG, Jiayue
IKEDA, Kohei
JACOB, Daniel
JACOBSON, Andy
JACOBSON, Marc
JAEGLE, Lyatt
JANSEN, Ruud
JIANG, Weiyuan
JIANG, Zhe
JIN, Lixu
JISKRA, Martin
JOHNSON, Matthew
JONES, Dylan
JUNG, Jaegun
KASIBHATLA, Prasad
HUDMAN KAY, Rynda
KELLER, Christoph
KELP, Makoto
KIKUCHI, Tetsuro
KIM, Hyeonmin
KIM, Sungshik
KITWIROON, Nutthida
KODROS, Jack
KOO, Jamin
KOPACZ, Monika
KOPLITZ, Shannon
KOUATCHOU, Jules
KREMSER, Stefanie
LACEY, Forrest
LAMENCUSA, Carmen
LAMSAL, Lok
LAPINA, Kateryna
LARSON, Kelsey
LARY, David
LATIMER, Robyn
LE SAGER, Philippe
LEE, Chulkyu
LEE, Colin
LEE, Meemong
LEHMANN, Ralph
LEIBENSPERGER, Eric
LERICHE, Maud
LEUNG, Fok-Yan
LI, Bengang
LI, Chi
LI, Ke
LI, Qinbin
LI, Xianglan
LI, Yanshun
LIAO, K.J.
LIANG, Qing
LIAO, Hong
LIN, Haipeng
LIN, Jintai
LIN, Shian-Jiann
LINFORD, John
LIU, Hongyu
LIU, Jane
LIU, Junhua
LIU, Pengfei
LIU, Tina
LIU, Yang
LIU, Ying
LOGAN, Jennifer
LONG, Mike
LU, Xiao
LUNDGREN, Lizzie
LUO, Gan
MAASAKKERS, J. D. (Bram)
MACINTYRE, Helen
MACKENZIE, Dave
MAHIEU, Emmanuel
MAO, Jingqiu
MARAIS, Eloise
MARKS, Marguerite
MARKUS, Arjen
MARTIN, Randall
MARVIN, Maggie
MCDUFFIE, Erin
MCGUFFIN, Dana
MCLINDEN, Chris
MENG, Hongjian
MENG, Jun
MESKHIDZE, Nicholas
MIATSELSKAYA, Natallia
MICKLEY, Loretta
MILLET, Dylan
MING, Kai
MOCH, Jonathan
MOORE, Neil
MOORING, Todd
MORENA, Jessica
MORIN, Gabriel
MORRIS, Eleanor
MU, Mingquan
MURPHY, Killian
MURRAY, Lee
NAM, Jun
NASSAR, Ray
NATHAN, Brian
NENES, Athanasios
NEVISON, Cynthia
NIELSEN, Eric
NOTHOLT, Justus
O'DELL, Kate
OKAMOTO, Sachiko
PAGE, Neil
PAI, Sidhant
PALMER, Paul
PARAZOO, Nick
PARELLA, Justin
PARK, Rokjin
PARRINGTON, Mark
PAULOT, Fabien
PHILIP, Sajeev
PICKETT-HEAPS, Christopher
PIERCE, Jeff
PORTER, Will
POUND, Ryan
PRATHER, Michael
PROTONATARIOU, Anna
PUTMAN, Bill
PYE, Havala
QURESHI, Asif
RAMNARINE, Emily
RANDERSON, James
RANDLES, Cynthia
RAVETTA, Francois
REINHART, Wes
RIDLEY, David
RIZZA, Umberto
ROTHENBERG, Daniel
ROY, Eric
SAFIEDDINE, Sarah
SANDU, Adrian
SANTILLANA, Mauricio
SAUVAGE, Bastien
SCARPELLI, Tia
SCHIFERL, Luke
SCHMIDT, Johan
SCHULTZ, Martin
SCHWANTES, Rebecca
SEBASTIANELLI, Paolo
SELIN, Noelle
SEYMOUR, Michael
SHAH, Viral
SHAO, Jingyuan
SHEN, Lu
SHERWEN, Tomas
SHUTTER, Joshua
SILVA, Sam
SMITH-DOWNEY, Nicole
SOERENSEN, Anne Laerke
SOFEN, Eric
SONG, Shaojie
SONG, Yu
SPRACKLEN, Dominick
STANEVICH, Ilya
STEENROD, Stephen
STERN, Rebecca
STEVENS, Robin
STREETS, David
STRODE, Sarah
SU, Flora
SULPRIZIO, Melissa
SUN, Minmin
SUNDERLAND, Elsie
SUNTHARALINGAM, Parvada
SURL, Luke
SUTHERLAND, Bethany
SUTO, Kimito
SZELAG, Monika
TAI, Amos
TANIMOTO, Hiroshi
TANNAHILL, John
TAO, Shu
THACKRAY, Colin
THOMPSON, Matt
THONAT, Thibaud
TIAN, Rong
TOMBROU, Maria
TRAVIS, Katherine
TRAYANOV, Atanas 
TRIVITAYANURAK, Win
TRUJILLO, Corey
TUCCELLA, Paolo
TURNER, Alexander
TURQUETY, Solene
TZOMPA-SOSA, Zitely
UNGER, Nadine
VAL MARTIN, Maria
VAN DONKELAAR, Aaron 
VAROTSOS, Kostas
VINKEN, Geert
VITT, Francis
WAGSTROM, Kristina
WALKER, Thomas
WANG, James
WANG, Jun
WANG, Qiaoqiao
WANG, Xuan
WANG, Xiaoli
WANG, Yuhang
WANG, Yuting
WANG, Yuxuan
WANG, Zifa
WECHT, Kevin
WEIDNER, Richard
WEISENSTEIN, Debra
WELLS, Kelley
WENG, Hongjian
WESTERVELT, Dan
WHALEY, Cynthia
WIEDINMYER, Christine
WILD, Oliver
WOHLTMANN, Ingo
WU, Shiliang
XIAO, Yaping
XU, Junwei
YAN, Yingying
YANNETTI, Matt
YANTOSCA, Bob
YATTEAU, Jack
YUMIMOTO, Keiya
YU, Karen
YU, Fangqun
YU, Xingpei
YUE, Xu
YUE, Xuyan
ZATKO, Maria
ZHAI, Shixian
ZHAI, Shuting
ZHANG, Bingqing
ZHANG, Bo
ZHANG, Chi
ZHANG, Dandan
ZHANG, Hongliang
ZHANG, Jiawei
ZHANG, Li
ZHANG, Lin
ZHANG, Qiang
ZHANG, Yanxu
ZHU, Lei
ZHU, Liye
ZHUANG, Jiawei
ZHUANG, Quanlai
ZOOGMAN, Peter
