! $Id: CMN_SIZE,v 1.11 2005/02/10 19:53:21 bmy Exp $
      !=======================================================================
      ! CMN_SIZE: size parameters for GEOS-CHEM arrays (bmy, 3/16/01, 12/1/04)
      !
      ! NOTES:
      ! (1 ) Now set LLTROP = 20 for GEOS-3 (bmy, 4/12/01)
      ! (2 ) Eliminated obsolete commented-out code (bmy, 4/20/01)
      ! (3 ) Now set MAXFAM = 12 for more P-L families (bmy, 6/28/01)  
      ! (4 ) Comment out {IJL}GCMPAR -- these are obosolete (bmy, 9/24/01)
      ! (5 ) Also set LLPAR = 30 for GEOS-3, will regrid online (bmy, 9/24/01) 
      ! (6 ) Removed obsolete code from 9/01 (bmy, 10/23/01)
      ! (7 ) Removed NAIR, LAIREMS, these are now defined 
      !       in "aircraft_nox_mod.f" (bmy, 2/14/02)
      ! (8 ) Eliminated commented-out code from 2/14/02.  Also added NAER 
      !       and NRH parameters for aerosols. (rvm, bmy, 2/27/02)
      ! (9 ) Removed IM, JM, IMX, JMX to avoid namespace pollution.  This
      !       is needed to get the new TPCORE to work.  Also changed RCS
      !       ID tag comment character from "C" to "!" to allow freeform
      !       compilation. (bmy, 6/25/02)
      ! (10) Removed obsolete code from 6/02 (bmy, 8/26/02)
      ! (11) Added NUMDEP_SULF in a common block for sulfate dry deposition. 
      !       Also set MAXDEP=31 and NNPAR=31 for coupled fullchem/sulfate
      !       simulations. (rjp, bdf, bmy, 11/15/02)
      ! (12) Removed I0, J0; these are now superseded by "grid_mod.f"
      !       (bmy, 2/11/03)
      ! (13) Added parameters for GEOS-4 (bmy, 6/18/03)
      ! (14) Now defines both 55 level and 30 level GEOS-4 grids.  Also
      !       define LLTROP=19 for GEOS-4 grids.  Also remove obsolete
      !       GEOS-2 grid declarations. (bmy, 10/31/03)
      ! (15) LLTROP should be 17 for GEOS-4...based on the ND55 diagnostic
      !       when computed for 2003 met fields (bmy, 2/18/04)
      ! (16) Increase NNPAR from 31 to 39 for carbon & dust tracers.  Also
      !       declare NDSTBIN as # of dust bins. (rvm, tdf, bmy, 4/1/04)
      ! (17) Increase NNPAR to 41 for seasalt tracers (rjp, bec, bmy, 4/20/04)
      ! (18) Increase NNPAR to 50 for SOA tracers (rjp, bmy, 7/15/04)
      ! (19) Now use NESTED_CH and NESTED_NA cpp switches to define 
      !       parameters for 1x1 nested grids.  Also add parameters for
      !       the 1 x 1.25 global grid. (bmy, 12/1/04)
      !=======================================================================

      ! C Preprocessor #define statements for conditional compilation
#     include "define.h"

      !=================================================================
      ! DISIZE = size (in degrees) of a longitude grid box
      ! DJSIZE = size (in degrees) of a latitude  grid box
      !=================================================================
#if   defined( GRID4x5   ) 
      REAL*8, PARAMETER :: DISIZE = 5.0d0
      REAL*8, PARAMETER :: DJSIZE = 4.0d0

#elif defined( GRID2x25  )
      REAL*8, PARAMETER :: DISIZE = 2.5d0 
      REAL*8, PARAMETER :: DJSIZE = 2.0d0

#elif defined( GRID1x125 )
      REAL*8, PARAMETER :: DISIZE = 1.25d0 
      REAL*8, PARAMETER :: DJSIZE = 1.0d0

#elif defined( GRID1x1   )
      REAL*8, PARAMETER :: DISIZE = 1.0d0 
      REAL*8, PARAMETER :: DJSIZE = 1.0d0

#endif

      !=================================================================
      ! GRID PARAMETERS
      !
      ! IGLOB  = global longitude dimension
      ! JGLOB  = global latitude dimension
      ! LGLOB  = max number of sigma levels 
      ! IIPAR  = window longitude dimension
      ! JJPAR  = window latitude dimension
      ! LLPAR  = window vertical dimension
      ! LLTROP = number of tropospheric levels 
      ! PTOP   = model top pressure (mb)
      !
      ! Most of the time, GEOS-CHEM is used for global simulations.
      ! In this case, then IIPAR=IGLOB, JJPAR=JGLOB, LLPAR=LGLOB.
      !
      ! For nested grids, then IIPAR<IGLOB, JJPAR<JGLOB, LLPAR<LGLOB.
      !=================================================================
#if   defined( GEOS_1 ) && defined( GRID4x5 ) 

      !--------------------
      ! GEOS-1 4 x 5
      !--------------------
      INTEGER, PARAMETER :: IGLOB  = 72
      INTEGER, PARAMETER :: JGLOB  = 46
      INTEGER, PARAMETER :: LGLOB  = 20

      INTEGER, PARAMETER :: IIPAR  = IGLOB
      INTEGER, PARAMETER :: JJPAR  = JGLOB
      INTEGER, PARAMETER :: LLPAR  = LGLOB

      INTEGER, PARAMETER :: LLTROP = 16

      REAL*8,  PARAMETER :: PTOP   = 10d0

#elif defined( GEOS_1 ) && defined( GRID2x25 )

      !--------------------
      ! GEOS-1 2 x 2.5
      !--------------------
      INTEGER, PARAMETER :: IGLOB  = 144
      INTEGER, PARAMETER :: JGLOB  = 91
      INTEGER, PARAMETER :: LGLOB  = 20

      INTEGER, PARAMETER :: IIPAR  = IGLOB
      INTEGER, PARAMETER :: JJPAR  = JGLOB
      INTEGER, PARAMETER :: LLPAR  = LGLOB

      INTEGER, PARAMETER :: LLTROP = 16

      REAL*8,  PARAMETER :: PTOP   = 10d0

#elif defined( GEOS_STRAT ) && defined( GRID4x5 )

      !--------------------
      ! GEOS-STRAT 4 x 5
      !--------------------
      INTEGER, PARAMETER :: IGLOB  = 72
      INTEGER, PARAMETER :: JGLOB  = 46
      INTEGER, PARAMETER :: LGLOB  = 26      

      INTEGER, PARAMETER :: IIPAR  = IGLOB
      INTEGER, PARAMETER :: JJPAR  = JGLOB
      INTEGER, PARAMETER :: LLPAR  = LGLOB

      INTEGER, PARAMETER :: LLTROP = 19

      REAL*8,  PARAMETER :: PTOP   = 0.1d0

#elif defined( GEOS_STRAT ) && defined( GRID2x25 )

      !--------------------
      ! GEOS-STRAT 2 x 2.5
      !--------------------
      INTEGER, PARAMETER :: IGLOB  = 144
      INTEGER, PARAMETER :: JGLOB  = 91
      INTEGER, PARAMETER :: LGLOB  = 26            

      INTEGER, PARAMETER :: IIPAR  = IGLOB
      INTEGER, PARAMETER :: JJPAR  = JGLOB
      INTEGER, PARAMETER :: LLPAR  = LGLOB

      INTEGER, PARAMETER :: LLTROP = 19

      REAL*8,  PARAMETER :: PTOP   = 0.1d0

#elif defined( GEOS_3 ) && defined( GRID4x5 )

      !--------------------
      ! GEOS-3 4 x 5
      !--------------------
      INTEGER, PARAMETER :: IGLOB  = 72
      INTEGER, PARAMETER :: JGLOB  = 46
      INTEGER, PARAMETER :: LGLOB  = 48            

      INTEGER, PARAMETER :: IIPAR  = IGLOB
      INTEGER, PARAMETER :: JJPAR  = JGLOB

#if   defined( GRID30LEV )
      INTEGER, PARAMETER :: LLPAR  = 30     ! 30 levels
#else
      INTEGER, PARAMETER :: LLPAR  = LGLOB  ! 48 levels
#endif

      INTEGER, PARAMETER :: LLTROP = 20       

      REAL*8,  PARAMETER :: PTOP   = 0.01d0

#elif defined( GEOS_3 ) && defined( GRID2x25 )

      !--------------------
      ! GEOS-3 2 x 2.5
      !--------------------
      INTEGER, PARAMETER :: IGLOB  = 144
      INTEGER, PARAMETER :: JGLOB  = 91
      INTEGER, PARAMETER :: LGLOB  = 48            

      INTEGER, PARAMETER :: IIPAR  = IGLOB
      INTEGER, PARAMETER :: JJPAR  = JGLOB

#if   defined( GRID30LEV )
      INTEGER, PARAMETER :: LLPAR  = 30     ! 30 levels
#else
      INTEGER, PARAMETER :: LLPAR  = LGLOB  ! 48 levels
#endif 

      INTEGER, PARAMETER :: LLTROP = 20       

      REAL*8,  PARAMETER :: PTOP   = 0.01d0

#elif defined( GEOS_3 ) && defined( GRID1x1 )

      !--------------------
      ! GEOS-3 1 x 1 
      !--------------------

#if   defined( NESTED_CH )

      ! Parameters for the 1x1 CHINA NESTED GRID
      INTEGER, PARAMETER :: IGLOB  = 81
      INTEGER, PARAMETER :: JGLOB  = 67
      INTEGER, PARAMETER :: LGLOB  = 48           

#elif defined( NESTED_NA )

      ! Parameters for the 1x1 NORTH AMERICA NESTED GRID
      INTEGER, PARAMETER :: IGLOB  = 101   
      INTEGER, PARAMETER :: JGLOB  = 51    
      INTEGER, PARAMETER :: LGLOB  = 48    

#else

      ! Parameters for the 1x1 GLOBAL GRID
      INTEGER, PARAMETER :: IGLOB  = 360
      INTEGER, PARAMETER :: JGLOB  = 181
      INTEGER, PARAMETER :: LGLOB  = 48                 

#endif

      INTEGER, PARAMETER :: IIPAR  = IGLOB
      INTEGER, PARAMETER :: JJPAR  = JGLOB

#if   defined( GRID30LEV )
      INTEGER, PARAMETER :: LLPAR  = 30     ! 30 levels
#else
      INTEGER, PARAMETER :: LLPAR  = LGLOB  ! 48 levels
#endif

      INTEGER, PARAMETER :: LLTROP = 20       

      REAL*8,  PARAMETER :: PTOP   = 0.01d0

#elif defined( GEOS_4 ) && defined( GRID4x5 )

      !--------------------
      ! GEOS-4 4 x 5
      !--------------------
      INTEGER, PARAMETER :: IGLOB  = 72
      INTEGER, PARAMETER :: JGLOB  = 46
      INTEGER, PARAMETER :: LGLOB  = 55           

      INTEGER, PARAMETER :: IIPAR  = IGLOB
      INTEGER, PARAMETER :: JJPAR  = JGLOB

#if   defined( GRID30LEV ) 
      INTEGER, PARAMETER :: LLPAR  = 30     ! 30 levels
#else
      INTEGER, PARAMETER :: LLPAR  = LGLOB  ! 55 levels
#endif

      INTEGER, PARAMETER :: LLTROP = 17

      REAL*8,  PARAMETER :: PTOP   = 0.01d0

#elif defined( GEOS_4 ) && defined( GRID2x25 )

      !--------------------
      ! GEOS-4 2 x 2.5
      !--------------------
      INTEGER, PARAMETER :: IGLOB  = 144
      INTEGER, PARAMETER :: JGLOB  = 91
      INTEGER, PARAMETER :: LGLOB  = 55

      INTEGER, PARAMETER :: IIPAR  = IGLOB
      INTEGER, PARAMETER :: JJPAR  = JGLOB

#if   defined( GRID30LEV )
      INTEGER, PARAMETER :: LLPAR  = 30     ! 30 levels
#else 
      INTEGER, PARAMETER :: LLPAR  = LGLOB  ! 55 levels
#endif

      INTEGER, PARAMETER :: LLTROP = 17

      REAL*8,  PARAMETER :: PTOP   = 0.01d0

#elif defined( GEOS_4 ) && defined( GRID1x125 )

      !--------------------
      ! GEOS-4 1 x 1.2.5
      !--------------------
      INTEGER, PARAMETER :: IGLOB  = 288
      INTEGER, PARAMETER :: JGLOB  = 181
      INTEGER, PARAMETER :: LGLOB  = 55

      INTEGER, PARAMETER :: IIPAR  = IGLOB
      INTEGER, PARAMETER :: JJPAR  = JGLOB

#if   defined( GRID30LEV )
      INTEGER, PARAMETER :: LLPAR  = 30     ! 30 levels
#else 
      INTEGER, PARAMETER :: LLPAR  = LGLOB  ! 55 levels
#endif

      INTEGER, PARAMETER :: LLTROP = 17

      REAL*8,  PARAMETER :: PTOP   = 0.01d0

#endif

      !=================================================================
      ! TRACER & EMISSION SPECIES PARAMETERS
      !
      ! NNPAR   = max number of tracers
      ! NEMPARA = max number of anthropogenic emission species
      ! NEMPARB = max number of biogenic      emission species
      !
      ! NOTE: Need to define these for LGEOSCO, even if FULLCHEM
      !       and SMALLCHEM switches are turned off (bmy, 10/2/00)
      !=================================================================
#if   defined( FULLCHEM  )
      INTEGER, PARAMETER :: NNPAR   = 50
      INTEGER, PARAMETER :: NEMPARA = 10
      INTEGER, PARAMETER :: NEMPARB = 1

#elif defined( LGEOSCO ) && !defined( FULLCHEM ) && !defined( SMALLCHEM )
      INTEGER, PARAMETER :: NNPAR   = 10
      INTEGER, PARAMETER :: NEMPARA = 10
      INTEGER, PARAMETER :: NEMPARB = 1
      
#endif

      !=================================================================
      ! OTHER PARAMETERS 
      !=================================================================

      ! NVEGTYPE - Maximum number of surface types: 74 olson
      ! NTYPE    - Maximum number of veg types in a CTM grid box
      ! NPOLY    - Number of coefficients for polynomial fits
      INTEGER, PARAMETER :: NVEGTYPE = 74
      INTEGER, PARAMETER :: NTYPE    = 15
      INTEGER, PARAMETER :: NPOLY    = 20

      ! NNSTA = max number of time series stations (in inptr.ctm)
      INTEGER, PARAMETER :: NNSTA = 800

      ! MAXIJ - Maximum number of 1st level grid boxes
      INTEGER, PARAMETER :: MAXIJ = IIPAR * JJPAR

      ! LLCONVM - Max number of layers for convection
      INTEGER, PARAMETER :: LLCONVM = LLPAR - 1

      ! NOXLEVELS = Number of levels of anthro NOx emission 
      !             (e.g. surface and 100m)
      ! NOXEXTENT = Highest sigma level that receives anthro NOx emission 
      INTEGER, PARAMETER :: NOXLEVELS = 2
      INTEGER, PARAMETER :: NOXEXTENT = 2 

      ! MAXFAM -- Max number of families for prod and loss output
      INTEGER, PARAMETER :: MAXFAM = 40

      ! NDUST -- Number of FAST-J aerosol size bins (rvm, bmy, 11/15/01)
      INTEGER, PARAMETER :: NDUST = 7

      ! NAER -- number of other aerosol categories (rvm, bmy, 2/27/02)
      INTEGER, PARAMETER :: NAER = 5

      ! NRH -- number of relative humidity bins (rvm, bmy, 2/27/02)
      INTEGER, PARAMETER :: NRH = 5

      ! NDSTBIN -- number of dust size bins for transport (tdf, bmy, 3/31/04)
      INTEGER, PARAMETER :: NDSTBIN = 4
