make[1]: Entering directory `/lustre/home/ucfaea1/Models/GEOS-Chem/Codes/Code.12.9.3/GeosCore'
make[2]: Entering directory `/lustre/home/ucfaea1/Models/GEOS-Chem/Codes/Code.12.9.3/GeosCore'
make[3]: Entering directory `/lustre/home/ucfaea1/Models/GEOS-Chem/Codes/Code.12.9.3/GeosCore'
make[4]: Entering directory `/lustre/home/ucfaea1/Models/GEOS-Chem/Codes/Code.12.9.3/NcdfUtil'
ifort -cpp -w -auto -noalign -convert big_endian -O2 -vec-report0 -fp-model source -openmp -mcmodel=medium -shared-intel -DMODEL_CLASSIC -DLINUX_IFORT -DNC_HAS_COMPRESSION -DUSE_REAL8 -module ../mod -I/shared/ucl/apps/NetCDF/4.3.3.1-intel-2015-update2/include -I/shared/ucl/apps/NetCDF-fortran/4.4.1-intel-2015-update2/include -c -free charpak_mod.F90
ifort -cpp -w -auto -noalign -convert big_endian -O2 -vec-report0 -fp-model source -openmp -mcmodel=medium -shared-intel -DMODEL_CLASSIC -DLINUX_IFORT -DNC_HAS_COMPRESSION -DUSE_REAL8 -module ../mod -I/shared/ucl/apps/NetCDF/4.3.3.1-intel-2015-update2/include -I/shared/ucl/apps/NetCDF-fortran/4.4.1-intel-2015-update2/include -c julday_mod.F
ifort -cpp -w -auto -noalign -convert big_endian -O2 -vec-report0 -fp-model source -openmp -mcmodel=medium -shared-intel -DMODEL_CLASSIC -DLINUX_IFORT -DNC_HAS_COMPRESSION -DUSE_REAL8 -module ../mod -I/shared/ucl/apps/NetCDF/4.3.3.1-intel-2015-update2/include -I/shared/ucl/apps/NetCDF-fortran/4.4.1-intel-2015-update2/include -c -free m_do_err_out.F90
ifort -cpp -w -auto -noalign -convert big_endian -O2 -vec-report0 -fp-model source -openmp -mcmodel=medium -shared-intel -DMODEL_CLASSIC -DLINUX_IFORT -DNC_HAS_COMPRESSION -DUSE_REAL8 -module ../mod -I/shared/ucl/apps/NetCDF/4.3.3.1-intel-2015-update2/include -I/shared/ucl/apps/NetCDF-fortran/4.4.1-intel-2015-update2/include -c -free m_netcdf_io_checks.F90
ifort -cpp -w -auto -noalign -convert big_endian -O2 -vec-report0 -fp-model source -openmp -mcmodel=medium -shared-intel -DMODEL_CLASSIC -DLINUX_IFORT -DNC_HAS_COMPRESSION -DUSE_REAL8 -module ../mod -I/shared/ucl/apps/NetCDF/4.3.3.1-intel-2015-update2/include -I/shared/ucl/apps/NetCDF-fortran/4.4.1-intel-2015-update2/include -c -free m_netcdf_io_close.F90
ifort -cpp -w -auto -noalign -convert big_endian -O2 -vec-report0 -fp-model source -openmp -mcmodel=medium -shared-intel -DMODEL_CLASSIC -DLINUX_IFORT -DNC_HAS_COMPRESSION -DUSE_REAL8 -module ../mod -I/shared/ucl/apps/NetCDF/4.3.3.1-intel-2015-update2/include -I/shared/ucl/apps/NetCDF-fortran/4.4.1-intel-2015-update2/include -c -free m_netcdf_io_create.F90
ifort -cpp -w -auto -noalign -convert big_endian -O2 -vec-report0 -fp-model source -openmp -mcmodel=medium -shared-intel -DMODEL_CLASSIC -DLINUX_IFORT -DNC_HAS_COMPRESSION -DUSE_REAL8 -module ../mod -I/shared/ucl/apps/NetCDF/4.3.3.1-intel-2015-update2/include -I/shared/ucl/apps/NetCDF-fortran/4.4.1-intel-2015-update2/include -c -free m_netcdf_io_define.F90
ifort -cpp -w -auto -noalign -convert big_endian -O2 -vec-report0 -fp-model source -openmp -mcmodel=medium -shared-intel -DMODEL_CLASSIC -DLINUX_IFORT -DNC_HAS_COMPRESSION -DUSE_REAL8 -module ../mod -I/shared/ucl/apps/NetCDF/4.3.3.1-intel-2015-update2/include -I/shared/ucl/apps/NetCDF-fortran/4.4.1-intel-2015-update2/include -c -free m_netcdf_io_get_dimlen.F90
ifort -cpp -w -auto -noalign -convert big_endian -O2 -vec-report0 -fp-model source -openmp -mcmodel=medium -shared-intel -DMODEL_CLASSIC -DLINUX_IFORT -DNC_HAS_COMPRESSION -DUSE_REAL8 -module ../mod -I/shared/ucl/apps/NetCDF/4.3.3.1-intel-2015-update2/include -I/shared/ucl/apps/NetCDF-fortran/4.4.1-intel-2015-update2/include -c -free m_netcdf_io_handle_err.F90
ifort -cpp -w -auto -noalign -convert big_endian -O2 -vec-report0 -fp-model source -openmp -mcmodel=medium -shared-intel -DMODEL_CLASSIC -DLINUX_IFORT -DNC_HAS_COMPRESSION -DUSE_REAL8 -module ../mod -I/shared/ucl/apps/NetCDF/4.3.3.1-intel-2015-update2/include -I/shared/ucl/apps/NetCDF-fortran/4.4.1-intel-2015-update2/include -c -free m_netcdf_io_open.F90
ifort -cpp -w -auto -noalign -convert big_endian -O2 -vec-report0 -fp-model source -openmp -mcmodel=medium -shared-intel -DMODEL_CLASSIC -DLINUX_IFORT -DNC_HAS_COMPRESSION -DUSE_REAL8 -module ../mod -I/shared/ucl/apps/NetCDF/4.3.3.1-intel-2015-update2/include -I/shared/ucl/apps/NetCDF-fortran/4.4.1-intel-2015-update2/include -c -free m_netcdf_io_read.F90
ifort -cpp -w -auto -noalign -convert big_endian -O2 -vec-report0 -fp-model source -openmp -mcmodel=medium -shared-intel -DMODEL_CLASSIC -DLINUX_IFORT -DNC_HAS_COMPRESSION -DUSE_REAL8 -module ../mod -I/shared/ucl/apps/NetCDF/4.3.3.1-intel-2015-update2/include -I/shared/ucl/apps/NetCDF-fortran/4.4.1-intel-2015-update2/include -c -free m_netcdf_io_readattr.F90
ifort -cpp -w -auto -noalign -convert big_endian -O2 -vec-report0 -fp-model source -openmp -mcmodel=medium -shared-intel -DMODEL_CLASSIC -DLINUX_IFORT -DNC_HAS_COMPRESSION -DUSE_REAL8 -module ../mod -I/shared/ucl/apps/NetCDF/4.3.3.1-intel-2015-update2/include -I/shared/ucl/apps/NetCDF-fortran/4.4.1-intel-2015-update2/include -c -free m_netcdf_io_write.F90
ifort -cpp -w -auto -noalign -convert big_endian -O2 -vec-report0 -fp-model source -openmp -mcmodel=medium -shared-intel -DMODEL_CLASSIC -DLINUX_IFORT -DNC_HAS_COMPRESSION -DUSE_REAL8 -module ../mod -I/shared/ucl/apps/NetCDF/4.3.3.1-intel-2015-update2/include -I/shared/ucl/apps/NetCDF-fortran/4.4.1-intel-2015-update2/include -c -free ncdf_mod.F90
ar crs libNcUtils.a m_do_err_out.o m_netcdf_io_checks.o m_netcdf_io_close.o m_netcdf_io_create.o m_netcdf_io_define.o m_netcdf_io_get_dimlen.o m_netcdf_io_handle_err.o m_netcdf_io_open.o m_netcdf_io_read.o m_netcdf_io_readattr.o m_netcdf_io_write.o ncdf_mod.o
mv libNcUtils.a ../lib
make[4]: Leaving directory `/lustre/home/ucfaea1/Models/GEOS-Chem/Codes/Code.12.9.3/NcdfUtil'
make[3]: Leaving directory `/lustre/home/ucfaea1/Models/GEOS-Chem/Codes/Code.12.9.3/GeosCore'
make[3]: Entering directory `/lustre/home/ucfaea1/Models/GEOS-Chem/Codes/Code.12.9.3/GeosCore'
make[4]: Entering directory `/lustre/home/ucfaea1/Models/GEOS-Chem/Codes/Code.12.9.3/KPP'
make[5]: Entering directory `/lustre/home/ucfaea1/Models/GEOS-Chem/Codes/Code.12.9.3/KPP/Standard'
ifort -cpp -w -auto -noalign -convert big_endian -O2 -vec-report0 -fp-model source -openmp -mcmodel=medium -shared-intel -DMODEL_CLASSIC -DLINUX_IFORT -DNC_HAS_COMPRESSION -DUSE_REAL8 -module ../../mod -I/shared/ucl/apps/NetCDF/4.3.3.1-intel-2015-update2/include -I/shared/ucl/apps/NetCDF-fortran/4.4.1-intel-2015-update2/include -c -free gckpp_Precision.F90
ifort -cpp -w -auto -noalign -convert big_endian -O2 -vec-report0 -fp-model source -openmp -mcmodel=medium -shared-intel -DMODEL_CLASSIC -DLINUX_IFORT -DNC_HAS_COMPRESSION -DUSE_REAL8 -module ../../mod -I/shared/ucl/apps/NetCDF/4.3.3.1-intel-2015-update2/include -I/shared/ucl/apps/NetCDF-fortran/4.4.1-intel-2015-update2/include -c -free gckpp_Monitor.F90
ifort -cpp -w -auto -noalign -convert big_endian -O2 -vec-report0 -fp-model source -openmp -mcmodel=medium -shared-intel -DMODEL_CLASSIC -DLINUX_IFORT -DNC_HAS_COMPRESSION -DUSE_REAL8 -module ../../mod -I/shared/ucl/apps/NetCDF/4.3.3.1-intel-2015-update2/include -I/shared/ucl/apps/NetCDF-fortran/4.4.1-intel-2015-update2/include -c -free gckpp_Parameters.F90
make[5]: Leaving directory `/lustre/home/ucfaea1/Models/GEOS-Chem/Codes/Code.12.9.3/KPP/Standard'
make[4]: Leaving directory `/lustre/home/ucfaea1/Models/GEOS-Chem/Codes/Code.12.9.3/KPP'
make[3]: Leaving directory `/lustre/home/ucfaea1/Models/GEOS-Chem/Codes/Code.12.9.3/GeosCore'
make[3]: Entering directory `/lustre/home/ucfaea1/Models/GEOS-Chem/Codes/Code.12.9.3/GeosCore'
make[4]: Entering directory `/lustre/home/ucfaea1/Models/GEOS-Chem/Codes/Code.12.9.3/Headers'
ifort -cpp -w -auto -noalign -convert big_endian -O2 -vec-report0 -fp-model source -openmp -mcmodel=medium -shared-intel -DMODEL_CLASSIC -DLINUX_IFORT -DNC_HAS_COMPRESSION -DUSE_REAL8 -module ../mod -I/shared/ucl/apps/NetCDF/4.3.3.1-intel-2015-update2/include -I/shared/ucl/apps/NetCDF-fortran/4.4.1-intel-2015-update2/include -c -free charpak_mod.F90
ifort -cpp -w -auto -noalign -convert big_endian -O2 -vec-report0 -fp-model source -openmp -mcmodel=medium -shared-intel -DMODEL_CLASSIC -DLINUX_IFORT -DNC_HAS_COMPRESSION -DUSE_REAL8 -module ../mod -I/shared/ucl/apps/NetCDF/4.3.3.1-intel-2015-update2/include -I/shared/ucl/apps/NetCDF-fortran/4.4.1-intel-2015-update2/include -c -free inquireMod.F90
ifort -cpp -w -auto -noalign -convert big_endian -O2 -vec-report0 -fp-model source -openmp -mcmodel=medium -shared-intel -DMODEL_CLASSIC -DLINUX_IFORT -DNC_HAS_COMPRESSION -DUSE_REAL8 -module ../mod -I/shared/ucl/apps/NetCDF/4.3.3.1-intel-2015-update2/include -I/shared/ucl/apps/NetCDF-fortran/4.4.1-intel-2015-update2/include -c -free dictionary_m.F90
ifort -cpp -w -auto -noalign -convert big_endian -O2 -vec-report0 -fp-model source -openmp -mcmodel=medium -shared-intel -DMODEL_CLASSIC -DLINUX_IFORT -DNC_HAS_COMPRESSION -DUSE_REAL8 -module ../mod -I/shared/ucl/apps/NetCDF/4.3.3.1-intel-2015-update2/include -I/shared/ucl/apps/NetCDF-fortran/4.4.1-intel-2015-update2/include -c -free precision_mod.F90
ifort -cpp -w -auto -noalign -convert big_endian -O2 -vec-report0 -fp-model source -openmp -mcmodel=medium -shared-intel -DMODEL_CLASSIC -DLINUX_IFORT -DNC_HAS_COMPRESSION -DUSE_REAL8 -module ../mod -I/shared/ucl/apps/NetCDF/4.3.3.1-intel-2015-update2/include -I/shared/ucl/apps/NetCDF-fortran/4.4.1-intel-2015-update2/include -c -free qfyaml_mod.F90
ifort -cpp -w -auto -noalign -convert big_endian -O2 -vec-report0 -fp-model source -openmp -mcmodel=medium -shared-intel -DMODEL_CLASSIC -DLINUX_IFORT -DNC_HAS_COMPRESSION -DUSE_REAL8 -module ../mod -I/shared/ucl/apps/NetCDF/4.3.3.1-intel-2015-update2/include -I/shared/ucl/apps/NetCDF-fortran/4.4.1-intel-2015-update2/include -c -free registry_params_mod.F90
ifort -cpp -w -auto -noalign -convert big_endian -O2 -vec-report0 -fp-model source -openmp -mcmodel=medium -shared-intel -DMODEL_CLASSIC -DLINUX_IFORT -DNC_HAS_COMPRESSION -DUSE_REAL8 -module ../mod -I/shared/ucl/apps/NetCDF/4.3.3.1-intel-2015-update2/include -I/shared/ucl/apps/NetCDF-fortran/4.4.1-intel-2015-update2/include -c -free physconstants.F90
ifort -cpp -w -auto -noalign -convert big_endian -O2 -vec-report0 -fp-model source -openmp -mcmodel=medium -shared-intel -DMODEL_CLASSIC -DLINUX_IFORT -DNC_HAS_COMPRESSION -DUSE_REAL8 -module ../mod -I/shared/ucl/apps/NetCDF/4.3.3.1-intel-2015-update2/include -I/shared/ucl/apps/NetCDF-fortran/4.4.1-intel-2015-update2/include -c -free roundoff_mod.F90
ifort -cpp -w -auto -noalign -convert big_endian -O2 -vec-report0 -fp-model source -openmp -mcmodel=medium -shared-intel -DMODEL_CLASSIC -DLINUX_IFORT -DNC_HAS_COMPRESSION -DUSE_REAL8 -module ../mod -I/shared/ucl/apps/NetCDF/4.3.3.1-intel-2015-update2/include -I/shared/ucl/apps/NetCDF-fortran/4.4.1-intel-2015-update2/include -c -free errcode_mod.F90
ifort -cpp -w -auto -noalign -convert big_endian -O2 -vec-report0 -fp-model source -openmp -mcmodel=medium -shared-intel -DMODEL_CLASSIC -DLINUX_IFORT -DNC_HAS_COMPRESSION -DUSE_REAL8 -module ../mod -I/shared/ucl/apps/NetCDF/4.3.3.1-intel-2015-update2/include -I/shared/ucl/apps/NetCDF-fortran/4.4.1-intel-2015-update2/include -c -free input_opt_mod.F90
ifort -cpp -w -auto -noalign -convert big_endian -O2 -vec-report0 -fp-model source -openmp -mcmodel=medium -shared-intel -DMODEL_CLASSIC -DLINUX_IFORT -DNC_HAS_COMPRESSION -DUSE_REAL8 -module ../mod -I/shared/ucl/apps/NetCDF/4.3.3.1-intel-2015-update2/include -I/shared/ucl/apps/NetCDF-fortran/4.4.1-intel-2015-update2/include -c -free registry_mod.F90
ifort -cpp -w -auto -noalign -convert big_endian -O2 -vec-report0 -fp-model source -openmp -mcmodel=medium -shared-intel -DMODEL_CLASSIC -DLINUX_IFORT -DNC_HAS_COMPRESSION -DUSE_REAL8 -module ../mod -I/shared/ucl/apps/NetCDF/4.3.3.1-intel-2015-update2/include -I/shared/ucl/apps/NetCDF-fortran/4.4.1-intel-2015-update2/include -c -free state_grid_mod.F90
ifort -cpp -w -auto -noalign -convert big_endian -O2 -vec-report0 -fp-model source -openmp -mcmodel=medium -shared-intel -DMODEL_CLASSIC -DLINUX_IFORT -DNC_HAS_COMPRESSION -DUSE_REAL8 -module ../mod -I/shared/ucl/apps/NetCDF/4.3.3.1-intel-2015-update2/include -I/shared/ucl/apps/NetCDF-fortran/4.4.1-intel-2015-update2/include -c -free species_mod.F90
ifort -cpp -w -auto -noalign -convert big_endian -O2 -vec-report0 -fp-model source -openmp -mcmodel=medium -shared-intel -DMODEL_CLASSIC -DLINUX_IFORT -DNC_HAS_COMPRESSION -DUSE_REAL8 -module ../mod -I/shared/ucl/apps/NetCDF/4.3.3.1-intel-2015-update2/include -I/shared/ucl/apps/NetCDF-fortran/4.4.1-intel-2015-update2/include -c -free CMN_SIZE_mod.F90
ifort -cpp -w -auto -noalign -convert big_endian -O2 -vec-report0 -fp-model source -openmp -mcmodel=medium -shared-intel -DMODEL_CLASSIC -DLINUX_IFORT -DNC_HAS_COMPRESSION -DUSE_REAL8 -module ../mod -I/shared/ucl/apps/NetCDF/4.3.3.1-intel-2015-update2/include -I/shared/ucl/apps/NetCDF-fortran/4.4.1-intel-2015-update2/include -c -free CMN_FJX_MOD.F90
ifort -cpp -w -auto -noalign -convert big_endian -O2 -vec-report0 -fp-model source -openmp -mcmodel=medium -shared-intel -DMODEL_CLASSIC -DLINUX_IFORT -DNC_HAS_COMPRESSION -DUSE_REAL8 -module ../mod -I/shared/ucl/apps/NetCDF/4.3.3.1-intel-2015-update2/include -I/shared/ucl/apps/NetCDF-fortran/4.4.1-intel-2015-update2/include -c -free CMN_O3_mod.F90
ifort -cpp -w -auto -noalign -convert big_endian -O2 -vec-report0 -fp-model source -openmp -mcmodel=medium -shared-intel -DMODEL_CLASSIC -DLINUX_IFORT -DNC_HAS_COMPRESSION -DUSE_REAL8 -module ../mod -I/shared/ucl/apps/NetCDF/4.3.3.1-intel-2015-update2/include -I/shared/ucl/apps/NetCDF-fortran/4.4.1-intel-2015-update2/include -c -free CMN_DIAG_mod.F90
ifort -cpp -w -auto -noalign -convert big_endian -O2 -vec-report0 -fp-model source -openmp -mcmodel=medium -shared-intel -DMODEL_CLASSIC -DLINUX_IFORT -DNC_HAS_COMPRESSION -DUSE_REAL8 -module ../mod -I/shared/ucl/apps/NetCDF/4.3.3.1-intel-2015-update2/include -I/shared/ucl/apps/NetCDF-fortran/4.4.1-intel-2015-update2/include -c -free diaglist_mod.F90
ifort -cpp -w -auto -noalign -convert big_endian -O2 -vec-report0 -fp-model source -openmp -mcmodel=medium -shared-intel -DMODEL_CLASSIC -DLINUX_IFORT -DNC_HAS_COMPRESSION -DUSE_REAL8 -module ../mod -I/shared/ucl/apps/NetCDF/4.3.3.1-intel-2015-update2/include -I/shared/ucl/apps/NetCDF-fortran/4.4.1-intel-2015-update2/include -c -free state_met_mod.F90
ifort -cpp -w -auto -noalign -convert big_endian -O2 -vec-report0 -fp-model source -openmp -mcmodel=medium -shared-intel -DMODEL_CLASSIC -DLINUX_IFORT -DNC_HAS_COMPRESSION -DUSE_REAL8 -module ../mod -I/shared/ucl/apps/NetCDF/4.3.3.1-intel-2015-update2/include -I/shared/ucl/apps/NetCDF-fortran/4.4.1-intel-2015-update2/include -c -free species_database_mod.F90
ifort -cpp -w -auto -noalign -convert big_endian -O2 -vec-report0 -fp-model source -openmp -mcmodel=medium -shared-intel -DMODEL_CLASSIC -DLINUX_IFORT -DNC_HAS_COMPRESSION -DUSE_REAL8 -module ../mod -I/shared/ucl/apps/NetCDF/4.3.3.1-intel-2015-update2/include -I/shared/ucl/apps/NetCDF-fortran/4.4.1-intel-2015-update2/include -c -free taggeddiaglist_mod.F90
ifort -cpp -w -auto -noalign -convert big_endian -O2 -vec-report0 -fp-model source -openmp -mcmodel=medium -shared-intel -DMODEL_CLASSIC -DLINUX_IFORT -DNC_HAS_COMPRESSION -DUSE_REAL8 -module ../mod -I/shared/ucl/apps/NetCDF/4.3.3.1-intel-2015-update2/include -I/shared/ucl/apps/NetCDF-fortran/4.4.1-intel-2015-update2/include -c -free state_chm_mod.F90
ifort -cpp -w -auto -noalign -convert big_endian -O2 -vec-report0 -fp-model source -openmp -mcmodel=medium -shared-intel -DMODEL_CLASSIC -DLINUX_IFORT -DNC_HAS_COMPRESSION -DUSE_REAL8 -module ../mod -I/shared/ucl/apps/NetCDF/4.3.3.1-intel-2015-update2/include -I/shared/ucl/apps/NetCDF-fortran/4.4.1-intel-2015-update2/include -c -free state_diag_mod.F90
ar crs libHeaders.a taggeddiaglist_mod.o state_chm_mod.o state_met_mod.o registry_params_mod.o physconstants.o registry_mod.o CMN_DIAG_mod.o roundoff_mod.o charpak_mod.o CMN_O3_mod.o precision_mod.o state_diag_mod.o dictionary_m.o species_mod.o inquireMod.o errcode_mod.o state_grid_mod.o diaglist_mod.o species_database_mod.o CMN_FJX_MOD.o CMN_SIZE_mod.o qfyaml_mod.o input_opt_mod.o
mv libHeaders.a ../lib
make[4]: Leaving directory `/lustre/home/ucfaea1/Models/GEOS-Chem/Codes/Code.12.9.3/Headers'
make[3]: Leaving directory `/lustre/home/ucfaea1/Models/GEOS-Chem/Codes/Code.12.9.3/GeosCore'
make[3]: Entering directory `/lustre/home/ucfaea1/Models/GEOS-Chem/Codes/Code.12.9.3/GeosCore'
make[4]: Entering directory `/lustre/home/ucfaea1/Models/GEOS-Chem/Codes/Code.12.9.3/GeosUtil'
ifort -cpp -w -auto -noalign -convert big_endian -O2 -vec-report0 -fp-model source -openmp -mcmodel=medium -shared-intel -DMODEL_CLASSIC -DLINUX_IFORT -DNC_HAS_COMPRESSION -DUSE_REAL8 -module ../mod -I/shared/ucl/apps/NetCDF/4.3.3.1-intel-2015-update2/include -I/shared/ucl/apps/NetCDF-fortran/4.4.1-intel-2015-update2/include -c -free timers_mod.F90
ifort -cpp -w -auto -noalign -convert big_endian -O2 -vec-report0 -fp-model source -openmp -mcmodel=medium -shared-intel -DMODEL_CLASSIC -DLINUX_IFORT -DNC_HAS_COMPRESSION -DUSE_REAL8 -module ../mod -I/shared/ucl/apps/NetCDF/4.3.3.1-intel-2015-update2/include -I/shared/ucl/apps/NetCDF-fortran/4.4.1-intel-2015-update2/include -c -free julday_mod.F90
ifort -cpp -w -auto -noalign -convert big_endian -O2 -vec-report0 -fp-model source -openmp -mcmodel=medium -shared-intel -DMODEL_CLASSIC -DLINUX_IFORT -DNC_HAS_COMPRESSION -DUSE_REAL8 -module ../mod -I/shared/ucl/apps/NetCDF/4.3.3.1-intel-2015-update2/include -I/shared/ucl/apps/NetCDF-fortran/4.4.1-intel-2015-update2/include -c -free regrid_a2a_mod.F90
ifort -cpp -w -auto -noalign -convert big_endian -O2 -vec-report0 -fp-model source -openmp -mcmodel=medium -shared-intel -DMODEL_CLASSIC -DLINUX_IFORT -DNC_HAS_COMPRESSION -DUSE_REAL8 -module ../mod -I/shared/ucl/apps/NetCDF/4.3.3.1-intel-2015-update2/include -I/shared/ucl/apps/NetCDF-fortran/4.4.1-intel-2015-update2/include -c -free henry_mod.F90
ifort -cpp -w -auto -noalign -convert big_endian -O2 -vec-report0 -fp-model source -openmp -mcmodel=medium -shared-intel -DMODEL_CLASSIC -DLINUX_IFORT -DNC_HAS_COMPRESSION -DUSE_REAL8 -module ../mod -I/shared/ucl/apps/NetCDF/4.3.3.1-intel-2015-update2/include -I/shared/ucl/apps/NetCDF-fortran/4.4.1-intel-2015-update2/include -c -free ifort_errmsg.F90
ifort -cpp -w -auto -noalign -convert big_endian -O2 -vec-report0 -fp-model source -openmp -mcmodel=medium -shared-intel -DMODEL_CLASSIC -DLINUX_IFORT -DNC_HAS_COMPRESSION -DUSE_REAL8 -module ../mod -I/shared/ucl/apps/NetCDF/4.3.3.1-intel-2015-update2/include -I/shared/ucl/apps/NetCDF-fortran/4.4.1-intel-2015-update2/include -c -free error_mod.F90
ifort -cpp -w -auto -noalign -convert big_endian -O2 -vec-report0 -fp-model source -openmp -mcmodel=medium -shared-intel -DMODEL_CLASSIC -DLINUX_IFORT -DNC_HAS_COMPRESSION -DUSE_REAL8 -module ../mod -I/shared/ucl/apps/NetCDF/4.3.3.1-intel-2015-update2/include -I/shared/ucl/apps/NetCDF-fortran/4.4.1-intel-2015-update2/include -c -free gc_grid_mod.F90
ifort -cpp -w -auto -noalign -convert big_endian -O2 -vec-report0 -fp-model source -openmp -mcmodel=medium -shared-intel -DMODEL_CLASSIC -DLINUX_IFORT -DNC_HAS_COMPRESSION -DUSE_REAL8 -module ../mod -I/shared/ucl/apps/NetCDF/4.3.3.1-intel-2015-update2/include -I/shared/ucl/apps/NetCDF-fortran/4.4.1-intel-2015-update2/include -c -free file_mod.F90
ifort -cpp -w -auto -noalign -convert big_endian -O2 -vec-report0 -fp-model source -openmp -mcmodel=medium -shared-intel -DMODEL_CLASSIC -DLINUX_IFORT -DNC_HAS_COMPRESSION -DUSE_REAL8 -module ../mod -I/shared/ucl/apps/NetCDF/4.3.3.1-intel-2015-update2/include -I/shared/ucl/apps/NetCDF-fortran/4.4.1-intel-2015-update2/include -c -free unitconv_mod.F90
ifort -cpp -w -auto -noalign -convert big_endian -O2 -vec-report0 -fp-model source -openmp -mcmodel=medium -shared-intel -DMODEL_CLASSIC -DLINUX_IFORT -DNC_HAS_COMPRESSION -DUSE_REAL8 -module ../mod -I/shared/ucl/apps/NetCDF/4.3.3.1-intel-2015-update2/include -I/shared/ucl/apps/NetCDF-fortran/4.4.1-intel-2015-update2/include -c -free transfer_mod.F90
ifort -cpp -w -auto -noalign -convert big_endian -O2 -vec-report0 -fp-model source -openmp -mcmodel=medium -shared-intel -DMODEL_CLASSIC -DLINUX_IFORT -DNC_HAS_COMPRESSION -DUSE_REAL8 -module ../mod -I/shared/ucl/apps/NetCDF/4.3.3.1-intel-2015-update2/include -I/shared/ucl/apps/NetCDF-fortran/4.4.1-intel-2015-update2/include -c -free pressure_mod.F90
ifort -cpp -w -auto -noalign -convert big_endian -O2 -vec-report0 -fp-model source -openmp -mcmodel=medium -shared-intel -DMODEL_CLASSIC -DLINUX_IFORT -DNC_HAS_COMPRESSION -DUSE_REAL8 -module ../mod -I/shared/ucl/apps/NetCDF/4.3.3.1-intel-2015-update2/include -I/shared/ucl/apps/NetCDF-fortran/4.4.1-intel-2015-update2/include -c -free time_mod.F90
ifort -cpp -w -auto -noalign -convert big_endian -O2 -vec-report0 -fp-model source -openmp -mcmodel=medium -shared-intel -DMODEL_CLASSIC -DLINUX_IFORT -DNC_HAS_COMPRESSION -DUSE_REAL8 -module ../mod -I/shared/ucl/apps/NetCDF/4.3.3.1-intel-2015-update2/include -I/shared/ucl/apps/NetCDF-fortran/4.4.1-intel-2015-update2/include -c -free bpch2_mod.F90
ifort -cpp -w -auto -noalign -convert big_endian -O2 -vec-report0 -fp-model source -openmp -mcmodel=medium -shared-intel -DMODEL_CLASSIC -DLINUX_IFORT -DNC_HAS_COMPRESSION -DUSE_REAL8 -module ../mod -I/shared/ucl/apps/NetCDF/4.3.3.1-intel-2015-update2/include -I/shared/ucl/apps/NetCDF-fortran/4.4.1-intel-2015-update2/include -c -free grid_registry_mod.F90
ar crs libGeosUtil.a time_mod.o error_mod.o regrid_a2a_mod.o bpch2_mod.o unitconv_mod.o file_mod.o gc_grid_mod.o henry_mod.o ifort_errmsg.o julday_mod.o timers_mod.o transfer_mod.o pressure_mod.o grid_registry_mod.o
mv libGeosUtil.a ../lib
make[4]: Leaving directory `/lustre/home/ucfaea1/Models/GEOS-Chem/Codes/Code.12.9.3/GeosUtil'
make[3]: Leaving directory `/lustre/home/ucfaea1/Models/GEOS-Chem/Codes/Code.12.9.3/GeosCore'
make[3]: Entering directory `/lustre/home/ucfaea1/Models/GEOS-Chem/Codes/Code.12.9.3/GeosCore'
make[4]: Entering directory `/lustre/home/ucfaea1/Models/GEOS-Chem/Codes/Code.12.9.3/KPP'
make[5]: Entering directory `/lustre/home/ucfaea1/Models/GEOS-Chem/Codes/Code.12.9.3/KPP/Standard'
ifort -cpp -w -auto -noalign -convert big_endian -O2 -vec-report0 -fp-model source -openmp -mcmodel=medium -shared-intel -DMODEL_CLASSIC -DLINUX_IFORT -DNC_HAS_COMPRESSION -DUSE_REAL8 -module ../../mod -I/shared/ucl/apps/NetCDF/4.3.3.1-intel-2015-update2/include -I/shared/ucl/apps/NetCDF-fortran/4.4.1-intel-2015-update2/include -c -free gckpp_Global.F90
ifort -cpp -w -auto -noalign -convert big_endian -O2 -vec-report0 -fp-model source -openmp -mcmodel=medium -shared-intel -DMODEL_CLASSIC -DLINUX_IFORT -DNC_HAS_COMPRESSION -DUSE_REAL8 -module ../../mod -I/shared/ucl/apps/NetCDF/4.3.3.1-intel-2015-update2/include -I/shared/ucl/apps/NetCDF-fortran/4.4.1-intel-2015-update2/include -c -free gckpp_Function.F90
ifort -cpp -w -auto -noalign -convert big_endian -O2 -vec-report0 -fp-model source -openmp -mcmodel=medium -shared-intel -DMODEL_CLASSIC -DLINUX_IFORT -DNC_HAS_COMPRESSION -DUSE_REAL8 -module ../../mod -I/shared/ucl/apps/NetCDF/4.3.3.1-intel-2015-update2/include -I/shared/ucl/apps/NetCDF-fortran/4.4.1-intel-2015-update2/include -c -free gckpp_JacobianSP.F90
ifort -cpp -w -auto -noalign -convert big_endian -O2 -vec-report0 -fp-model source -openmp -mcmodel=medium -shared-intel -DMODEL_CLASSIC -DLINUX_IFORT -DNC_HAS_COMPRESSION -DUSE_REAL8 -module ../../mod -I/shared/ucl/apps/NetCDF/4.3.3.1-intel-2015-update2/include -I/shared/ucl/apps/NetCDF-fortran/4.4.1-intel-2015-update2/include -c -free gckpp_HetRates.F90
ifort -cpp -w -auto -noalign -convert big_endian -O2 -vec-report0 -fp-model source -openmp -mcmodel=medium -shared-intel -DMODEL_CLASSIC -DLINUX_IFORT -DNC_HAS_COMPRESSION -DUSE_REAL8 -module ../../mod -I/shared/ucl/apps/NetCDF/4.3.3.1-intel-2015-update2/include -I/shared/ucl/apps/NetCDF-fortran/4.4.1-intel-2015-update2/include -c -free gckpp_Util.F90
ifort -cpp -w -auto -noalign -convert big_endian -O2 -vec-report0 -fp-model source -openmp -mcmodel=medium -shared-intel -DMODEL_CLASSIC -DLINUX_IFORT -DNC_HAS_COMPRESSION -DUSE_REAL8 -module ../../mod -I/shared/ucl/apps/NetCDF/4.3.3.1-intel-2015-update2/include -I/shared/ucl/apps/NetCDF-fortran/4.4.1-intel-2015-update2/include -c -free gckpp_Jacobian.F90
ifort -cpp -w -auto -noalign -convert big_endian -O2 -vec-report0 -fp-model source -openmp -mcmodel=medium -shared-intel -DMODEL_CLASSIC -DLINUX_IFORT -DNC_HAS_COMPRESSION -DUSE_REAL8 -module ../../mod -I/shared/ucl/apps/NetCDF/4.3.3.1-intel-2015-update2/include -I/shared/ucl/apps/NetCDF-fortran/4.4.1-intel-2015-update2/include -c -free gckpp_LinearAlgebra.F90
ifort -cpp -w -auto -noalign -convert big_endian -O2 -vec-report0 -fp-model source -openmp -mcmodel=medium -shared-intel -DMODEL_CLASSIC -DLINUX_IFORT -DNC_HAS_COMPRESSION -DUSE_REAL8 -module ../../mod -I/shared/ucl/apps/NetCDF/4.3.3.1-intel-2015-update2/include -I/shared/ucl/apps/NetCDF-fortran/4.4.1-intel-2015-update2/include -c -free gckpp_Initialize.F90
ifort -cpp -w -auto -noalign -convert big_endian -O2 -vec-report0 -fp-model source -openmp -mcmodel=medium -shared-intel -DMODEL_CLASSIC -DLINUX_IFORT -DNC_HAS_COMPRESSION -DUSE_REAL8 -module ../../mod -I/shared/ucl/apps/NetCDF/4.3.3.1-intel-2015-update2/include -I/shared/ucl/apps/NetCDF-fortran/4.4.1-intel-2015-update2/include -c -free gckpp_Rates.F90
ifort -cpp -w -auto -noalign -convert big_endian -O2 -vec-report0 -fp-model source -openmp -mcmodel=medium -shared-intel -DMODEL_CLASSIC -DLINUX_IFORT -DNC_HAS_COMPRESSION -DUSE_REAL8 -module ../../mod -I/shared/ucl/apps/NetCDF/4.3.3.1-intel-2015-update2/include -I/shared/ucl/apps/NetCDF-fortran/4.4.1-intel-2015-update2/include -c -free gckpp_Integrator.F90
ifort -cpp -w -auto -noalign -convert big_endian -O2 -vec-report0 -fp-model source -openmp -mcmodel=medium -shared-intel -DMODEL_CLASSIC -DLINUX_IFORT -DNC_HAS_COMPRESSION -DUSE_REAL8 -module ../../mod -I/shared/ucl/apps/NetCDF/4.3.3.1-intel-2015-update2/include -I/shared/ucl/apps/NetCDF-fortran/4.4.1-intel-2015-update2/include -c -free gckpp_Model.F90
ar crs libKpp.a gckpp_Global.o gckpp_HetRates.o gckpp_Parameters.o gckpp_Model.o gckpp_JacobianSP.o gckpp_Rates.o gckpp_LinearAlgebra.o gckpp_Precision.o gckpp_Monitor.o gckpp_Util.o gckpp_Integrator.o gckpp_Jacobian.o gckpp_Initialize.o gckpp_Function.o
mv libKpp.a ../../lib
make[5]: Leaving directory `/lustre/home/ucfaea1/Models/GEOS-Chem/Codes/Code.12.9.3/KPP/Standard'
make[4]: Leaving directory `/lustre/home/ucfaea1/Models/GEOS-Chem/Codes/Code.12.9.3/KPP'
make[3]: Leaving directory `/lustre/home/ucfaea1/Models/GEOS-Chem/Codes/Code.12.9.3/GeosCore'
make[3]: Entering directory `/lustre/home/ucfaea1/Models/GEOS-Chem/Codes/Code.12.9.3/GeosCore'
make[4]: Entering directory `/lustre/home/ucfaea1/Models/GEOS-Chem/Codes/Code.12.9.3/History'
ifort -cpp -w -auto -noalign -convert big_endian -O2 -vec-report0 -fp-model source -openmp -mcmodel=medium -shared-intel -DMODEL_CLASSIC -DLINUX_IFORT -DNC_HAS_COMPRESSION -DUSE_REAL8 -module ../mod -I/shared/ucl/apps/NetCDF/4.3.3.1-intel-2015-update2/include -I/shared/ucl/apps/NetCDF-fortran/4.4.1-intel-2015-update2/include -c -free history_util_mod.F90
ifort -cpp -w -auto -noalign -convert big_endian -O2 -vec-report0 -fp-model source -openmp -mcmodel=medium -shared-intel -DMODEL_CLASSIC -DLINUX_IFORT -DNC_HAS_COMPRESSION -DUSE_REAL8 -module ../mod -I/shared/ucl/apps/NetCDF/4.3.3.1-intel-2015-update2/include -I/shared/ucl/apps/NetCDF-fortran/4.4.1-intel-2015-update2/include -c -free histitem_mod.F90
ifort -cpp -w -auto -noalign -convert big_endian -O2 -vec-report0 -fp-model source -openmp -mcmodel=medium -shared-intel -DMODEL_CLASSIC -DLINUX_IFORT -DNC_HAS_COMPRESSION -DUSE_REAL8 -module ../mod -I/shared/ucl/apps/NetCDF/4.3.3.1-intel-2015-update2/include -I/shared/ucl/apps/NetCDF-fortran/4.4.1-intel-2015-update2/include -c -free metahistitem_mod.F90
ifort -cpp -w -auto -noalign -convert big_endian -O2 -vec-report0 -fp-model source -openmp -mcmodel=medium -shared-intel -DMODEL_CLASSIC -DLINUX_IFORT -DNC_HAS_COMPRESSION -DUSE_REAL8 -module ../mod -I/shared/ucl/apps/NetCDF/4.3.3.1-intel-2015-update2/include -I/shared/ucl/apps/NetCDF-fortran/4.4.1-intel-2015-update2/include -c -free histcontainer_mod.F90
ifort -cpp -w -auto -noalign -convert big_endian -O2 -vec-report0 -fp-model source -openmp -mcmodel=medium -shared-intel -DMODEL_CLASSIC -DLINUX_IFORT -DNC_HAS_COMPRESSION -DUSE_REAL8 -module ../mod -I/shared/ucl/apps/NetCDF/4.3.3.1-intel-2015-update2/include -I/shared/ucl/apps/NetCDF-fortran/4.4.1-intel-2015-update2/include -c -free metahistcontainer_mod.F90
ifort -cpp -w -auto -noalign -convert big_endian -O2 -vec-report0 -fp-model source -openmp -mcmodel=medium -shared-intel -DMODEL_CLASSIC -DLINUX_IFORT -DNC_HAS_COMPRESSION -DUSE_REAL8 -module ../mod -I/shared/ucl/apps/NetCDF/4.3.3.1-intel-2015-update2/include -I/shared/ucl/apps/NetCDF-fortran/4.4.1-intel-2015-update2/include -c -free history_netcdf_mod.F90
ifort -cpp -w -auto -noalign -convert big_endian -O2 -vec-report0 -fp-model source -openmp -mcmodel=medium -shared-intel -DMODEL_CLASSIC -DLINUX_IFORT -DNC_HAS_COMPRESSION -DUSE_REAL8 -module ../mod -I/shared/ucl/apps/NetCDF/4.3.3.1-intel-2015-update2/include -I/shared/ucl/apps/NetCDF-fortran/4.4.1-intel-2015-update2/include -c -free history_mod.F90
ar crs libHistory.a history_netcdf_mod.o metahistcontainer_mod.o histitem_mod.o history_util_mod.o metahistitem_mod.o histcontainer_mod.o history_mod.o
mv libHistory.a ../lib
make[4]: Leaving directory `/lustre/home/ucfaea1/Models/GEOS-Chem/Codes/Code.12.9.3/History'
make[3]: Leaving directory `/lustre/home/ucfaea1/Models/GEOS-Chem/Codes/Code.12.9.3/GeosCore'
make[3]: Entering directory `/lustre/home/ucfaea1/Models/GEOS-Chem/Codes/Code.12.9.3/GeosCore'
make[4]: Entering directory `/lustre/home/ucfaea1/Models/GEOS-Chem/Codes/Code.12.9.3/ObsPack'
ifort -cpp -w -auto -noalign -convert big_endian -O2 -vec-report0 -fp-model source -openmp -mcmodel=medium -shared-intel -DMODEL_CLASSIC -DLINUX_IFORT -DNC_HAS_COMPRESSION -DUSE_REAL8 -module ../mod -I/shared/ucl/apps/NetCDF/4.3.3.1-intel-2015-update2/include -I/shared/ucl/apps/NetCDF-fortran/4.4.1-intel-2015-update2/include -c -free obspack_mod.F90
ar crs libObsPack.a obspack_mod.o
mv libObsPack.a ../lib
make[4]: Leaving directory `/lustre/home/ucfaea1/Models/GEOS-Chem/Codes/Code.12.9.3/ObsPack'
make[3]: Leaving directory `/lustre/home/ucfaea1/Models/GEOS-Chem/Codes/Code.12.9.3/GeosCore'
make[3]: Entering directory `/lustre/home/ucfaea1/Models/GEOS-Chem/Codes/Code.12.9.3/GeosCore'
make[4]: Entering directory `/lustre/home/ucfaea1/Models/GEOS-Chem/Codes/Code.12.9.3/HEMCO'
make[5]: Entering directory `/lustre/home/ucfaea1/Models/GEOS-Chem/Codes/Code.12.9.3/HEMCO'
make[6]: Entering directory `/lustre/home/ucfaea1/Models/GEOS-Chem/Codes/Code.12.9.3/HEMCO/src/Core'
ifort -cpp -w -auto -noalign -convert big_endian -O2 -vec-report0 -fp-model source -openmp -mcmodel=medium -shared-intel -DMODEL_CLASSIC -DLINUX_IFORT -DNC_HAS_COMPRESSION -DUSE_REAL8 -module ../../../mod -I/shared/ucl/apps/NetCDF/4.3.3.1-intel-2015-update2/include -I/shared/ucl/apps/NetCDF-fortran/4.4.1-intel-2015-update2/include -c -free hco_error_mod.F90
ifort -cpp -w -auto -noalign -convert big_endian -O2 -vec-report0 -fp-model source -openmp -mcmodel=medium -shared-intel -DMODEL_CLASSIC -DLINUX_IFORT -DNC_HAS_COMPRESSION -DUSE_REAL8 -module ../../../mod -I/shared/ucl/apps/NetCDF/4.3.3.1-intel-2015-update2/include -I/shared/ucl/apps/NetCDF-fortran/4.4.1-intel-2015-update2/include -c -free messy_ncregrid_mpi.F90
ifort -cpp -w -auto -noalign -convert big_endian -O2 -vec-report0 -fp-model source -openmp -mcmodel=medium -shared-intel -DMODEL_CLASSIC -DLINUX_IFORT -DNC_HAS_COMPRESSION -DUSE_REAL8 -module ../../../mod -I/shared/ucl/apps/NetCDF/4.3.3.1-intel-2015-update2/include -I/shared/ucl/apps/NetCDF-fortran/4.4.1-intel-2015-update2/include -c -free hco_arr_mod.F90
ifort -cpp -w -auto -noalign -convert big_endian -O2 -vec-report0 -fp-model source -openmp -mcmodel=medium -shared-intel -DMODEL_CLASSIC -DLINUX_IFORT -DNC_HAS_COMPRESSION -DUSE_REAL8 -module ../../../mod -I/shared/ucl/apps/NetCDF/4.3.3.1-intel-2015-update2/include -I/shared/ucl/apps/NetCDF-fortran/4.4.1-intel-2015-update2/include -c -free messy_ncregrid_base.F90
ifort -cpp -w -auto -noalign -convert big_endian -O2 -vec-report0 -fp-model source -openmp -mcmodel=medium -shared-intel -DMODEL_CLASSIC -DLINUX_IFORT -DNC_HAS_COMPRESSION -DUSE_REAL8 -module ../../../mod -I/shared/ucl/apps/NetCDF/4.3.3.1-intel-2015-update2/include -I/shared/ucl/apps/NetCDF-fortran/4.4.1-intel-2015-update2/include -c -free interpreter.F90
ifort -cpp -w -auto -noalign -convert big_endian -O2 -vec-report0 -fp-model source -openmp -mcmodel=medium -shared-intel -DMODEL_CLASSIC -DLINUX_IFORT -DNC_HAS_COMPRESSION -DUSE_REAL8 -module ../../../mod -I/shared/ucl/apps/NetCDF/4.3.3.1-intel-2015-update2/include -I/shared/ucl/apps/NetCDF-fortran/4.4.1-intel-2015-update2/include -c -free hco_types_mod.F90
ifort -cpp -w -auto -noalign -convert big_endian -O2 -vec-report0 -fp-model source -openmp -mcmodel=medium -shared-intel -DMODEL_CLASSIC -DLINUX_IFORT -DNC_HAS_COMPRESSION -DUSE_REAL8 -module ../../../mod -I/shared/ucl/apps/NetCDF/4.3.3.1-intel-2015-update2/include -I/shared/ucl/apps/NetCDF-fortran/4.4.1-intel-2015-update2/include -c -free hco_extlist_mod.F90
ifort -cpp -w -auto -noalign -convert big_endian -O2 -vec-report0 -fp-model source -openmp -mcmodel=medium -shared-intel -DMODEL_CLASSIC -DLINUX_IFORT -DNC_HAS_COMPRESSION -DUSE_REAL8 -module ../../../mod -I/shared/ucl/apps/NetCDF/4.3.3.1-intel-2015-update2/include -I/shared/ucl/apps/NetCDF-fortran/4.4.1-intel-2015-update2/include -c -free hco_vertgrid_mod.F90
ifort -cpp -w -auto -noalign -convert big_endian -O2 -vec-report0 -fp-model source -openmp -mcmodel=medium -shared-intel -DMODEL_CLASSIC -DLINUX_IFORT -DNC_HAS_COMPRESSION -DUSE_REAL8 -module ../../../mod -I/shared/ucl/apps/NetCDF/4.3.3.1-intel-2015-update2/include -I/shared/ucl/apps/NetCDF-fortran/4.4.1-intel-2015-update2/include -c -free hco_chartools_mod.F90
ifort -cpp -w -auto -noalign -convert big_endian -O2 -vec-report0 -fp-model source -openmp -mcmodel=medium -shared-intel -DMODEL_CLASSIC -DLINUX_IFORT -DNC_HAS_COMPRESSION -DUSE_REAL8 -module ../../../mod -I/shared/ucl/apps/NetCDF/4.3.3.1-intel-2015-update2/include -I/shared/ucl/apps/NetCDF-fortran/4.4.1-intel-2015-update2/include -c -free hco_unit_mod.F90
ifort -cpp -w -auto -noalign -convert big_endian -O2 -vec-report0 -fp-model source -openmp -mcmodel=medium -shared-intel -DMODEL_CLASSIC -DLINUX_IFORT -DNC_HAS_COMPRESSION -DUSE_REAL8 -module ../../../mod -I/shared/ucl/apps/NetCDF/4.3.3.1-intel-2015-update2/include -I/shared/ucl/apps/NetCDF-fortran/4.4.1-intel-2015-update2/include -c -free hco_filedata_mod.F90
ifort -cpp -w -auto -noalign -convert big_endian -O2 -vec-report0 -fp-model source -openmp -mcmodel=medium -shared-intel -DMODEL_CLASSIC -DLINUX_IFORT -DNC_HAS_COMPRESSION -DUSE_REAL8 -module ../../../mod -I/shared/ucl/apps/NetCDF/4.3.3.1-intel-2015-update2/include -I/shared/ucl/apps/NetCDF-fortran/4.4.1-intel-2015-update2/include -c -free hco_state_mod.F90
ifort -cpp -w -auto -noalign -convert big_endian -O2 -vec-report0 -fp-model source -openmp -mcmodel=medium -shared-intel -DMODEL_CLASSIC -DLINUX_IFORT -DNC_HAS_COMPRESSION -DUSE_REAL8 -module ../../../mod -I/shared/ucl/apps/NetCDF/4.3.3.1-intel-2015-update2/include -I/shared/ucl/apps/NetCDF-fortran/4.4.1-intel-2015-update2/include -c -free hco_interp_mod.F90
ifort -cpp -w -auto -noalign -convert big_endian -O2 -vec-report0 -fp-model source -openmp -mcmodel=medium -shared-intel -DMODEL_CLASSIC -DLINUX_IFORT -DNC_HAS_COMPRESSION -DUSE_REAL8 -module ../../../mod -I/shared/ucl/apps/NetCDF/4.3.3.1-intel-2015-update2/include -I/shared/ucl/apps/NetCDF-fortran/4.4.1-intel-2015-update2/include -c -free hcoio_read_esmf_mod.F90
ifort -cpp -w -auto -noalign -convert big_endian -O2 -vec-report0 -fp-model source -openmp -mcmodel=medium -shared-intel -DMODEL_CLASSIC -DLINUX_IFORT -DNC_HAS_COMPRESSION -DUSE_REAL8 -module ../../../mod -I/shared/ucl/apps/NetCDF/4.3.3.1-intel-2015-update2/include -I/shared/ucl/apps/NetCDF-fortran/4.4.1-intel-2015-update2/include -c -free hco_scale_mod.F90
ifort -cpp -w -auto -noalign -convert big_endian -O2 -vec-report0 -fp-model source -openmp -mcmodel=medium -shared-intel -DMODEL_CLASSIC -DLINUX_IFORT -DNC_HAS_COMPRESSION -DUSE_REAL8 -module ../../../mod -I/shared/ucl/apps/NetCDF/4.3.3.1-intel-2015-update2/include -I/shared/ucl/apps/NetCDF-fortran/4.4.1-intel-2015-update2/include -c -free hco_datacont_mod.F90
ifort -cpp -w -auto -noalign -convert big_endian -O2 -vec-report0 -fp-model source -openmp -mcmodel=medium -shared-intel -DMODEL_CLASSIC -DLINUX_IFORT -DNC_HAS_COMPRESSION -DUSE_REAL8 -module ../../../mod -I/shared/ucl/apps/NetCDF/4.3.3.1-intel-2015-update2/include -I/shared/ucl/apps/NetCDF-fortran/4.4.1-intel-2015-update2/include -c -free hco_logfile_mod.F90
ifort -cpp -w -auto -noalign -convert big_endian -O2 -vec-report0 -fp-model source -openmp -mcmodel=medium -shared-intel -DMODEL_CLASSIC -DLINUX_IFORT -DNC_HAS_COMPRESSION -DUSE_REAL8 -module ../../../mod -I/shared/ucl/apps/NetCDF/4.3.3.1-intel-2015-update2/include -I/shared/ucl/apps/NetCDF-fortran/4.4.1-intel-2015-update2/include -c -free hco_timeshift_mod.F90
ifort -cpp -w -auto -noalign -convert big_endian -O2 -vec-report0 -fp-model source -openmp -mcmodel=medium -shared-intel -DMODEL_CLASSIC -DLINUX_IFORT -DNC_HAS_COMPRESSION -DUSE_REAL8 -module ../../../mod -I/shared/ucl/apps/NetCDF/4.3.3.1-intel-2015-update2/include -I/shared/ucl/apps/NetCDF-fortran/4.4.1-intel-2015-update2/include -c -free hco_emislist_mod.F90
ifort -cpp -w -auto -noalign -convert big_endian -O2 -vec-report0 -fp-model source -openmp -mcmodel=medium -shared-intel -DMODEL_CLASSIC -DLINUX_IFORT -DNC_HAS_COMPRESSION -DUSE_REAL8 -module ../../../mod -I/shared/ucl/apps/NetCDF/4.3.3.1-intel-2015-update2/include -I/shared/ucl/apps/NetCDF-fortran/4.4.1-intel-2015-update2/include -c -free hco_clock_mod.F90
ifort -cpp -w -auto -noalign -convert big_endian -O2 -vec-report0 -fp-model source -openmp -mcmodel=medium -shared-intel -DMODEL_CLASSIC -DLINUX_IFORT -DNC_HAS_COMPRESSION -DUSE_REAL8 -module ../../../mod -I/shared/ucl/apps/NetCDF/4.3.3.1-intel-2015-update2/include -I/shared/ucl/apps/NetCDF-fortran/4.4.1-intel-2015-update2/include -c -free hco_diagn_mod.F90
ifort -cpp -w -auto -noalign -convert big_endian -O2 -vec-report0 -fp-model source -openmp -mcmodel=medium -shared-intel -DMODEL_CLASSIC -DLINUX_IFORT -DNC_HAS_COMPRESSION -DUSE_REAL8 -module ../../../mod -I/shared/ucl/apps/NetCDF/4.3.3.1-intel-2015-update2/include -I/shared/ucl/apps/NetCDF-fortran/4.4.1-intel-2015-update2/include -c -free hco_tidx_mod.F90
ifort -cpp -w -auto -noalign -convert big_endian -O2 -vec-report0 -fp-model source -openmp -mcmodel=medium -shared-intel -DMODEL_CLASSIC -DLINUX_IFORT -DNC_HAS_COMPRESSION -DUSE_REAL8 -module ../../../mod -I/shared/ucl/apps/NetCDF/4.3.3.1-intel-2015-update2/include -I/shared/ucl/apps/NetCDF-fortran/4.4.1-intel-2015-update2/include -c -free hcoio_write_std_mod.F90
ifort -cpp -w -auto -noalign -convert big_endian -O2 -vec-report0 -fp-model source -openmp -mcmodel=medium -shared-intel -DMODEL_CLASSIC -DLINUX_IFORT -DNC_HAS_COMPRESSION -DUSE_REAL8 -module ../../../mod -I/shared/ucl/apps/NetCDF/4.3.3.1-intel-2015-update2/include -I/shared/ucl/apps/NetCDF-fortran/4.4.1-intel-2015-update2/include -c -free hco_calc_mod.F90
ifort -cpp -w -auto -noalign -convert big_endian -O2 -vec-report0 -fp-model source -openmp -mcmodel=medium -shared-intel -DMODEL_CLASSIC -DLINUX_IFORT -DNC_HAS_COMPRESSION -DUSE_REAL8 -module ../../../mod -I/shared/ucl/apps/NetCDF/4.3.3.1-intel-2015-update2/include -I/shared/ucl/apps/NetCDF-fortran/4.4.1-intel-2015-update2/include -c -free hco_restart_mod.F90
ifort -cpp -w -auto -noalign -convert big_endian -O2 -vec-report0 -fp-model source -openmp -mcmodel=medium -shared-intel -DMODEL_CLASSIC -DLINUX_IFORT -DNC_HAS_COMPRESSION -DUSE_REAL8 -module ../../../mod -I/shared/ucl/apps/NetCDF/4.3.3.1-intel-2015-update2/include -I/shared/ucl/apps/NetCDF-fortran/4.4.1-intel-2015-update2/include -c -free hcoio_write_esmf_mod.F90
ifort -cpp -w -auto -noalign -convert big_endian -O2 -vec-report0 -fp-model source -openmp -mcmodel=medium -shared-intel -DMODEL_CLASSIC -DLINUX_IFORT -DNC_HAS_COMPRESSION -DUSE_REAL8 -module ../../../mod -I/shared/ucl/apps/NetCDF/4.3.3.1-intel-2015-update2/include -I/shared/ucl/apps/NetCDF-fortran/4.4.1-intel-2015-update2/include -c -free hco_fluxarr_mod.F90
ifort -cpp -w -auto -noalign -convert big_endian -O2 -vec-report0 -fp-model source -openmp -mcmodel=medium -shared-intel -DMODEL_CLASSIC -DLINUX_IFORT -DNC_HAS_COMPRESSION -DUSE_REAL8 -module ../../../mod -I/shared/ucl/apps/NetCDF/4.3.3.1-intel-2015-update2/include -I/shared/ucl/apps/NetCDF-fortran/4.4.1-intel-2015-update2/include -c -free hcoio_diagn_mod.F90
ifort -cpp -w -auto -noalign -convert big_endian -O2 -vec-report0 -fp-model source -openmp -mcmodel=medium -shared-intel -DMODEL_CLASSIC -DLINUX_IFORT -DNC_HAS_COMPRESSION -DUSE_REAL8 -module ../../../mod -I/shared/ucl/apps/NetCDF/4.3.3.1-intel-2015-update2/include -I/shared/ucl/apps/NetCDF-fortran/4.4.1-intel-2015-update2/include -c -free hcoio_messy_mod.F90
ifort -cpp -w -auto -noalign -convert big_endian -O2 -vec-report0 -fp-model source -openmp -mcmodel=medium -shared-intel -DMODEL_CLASSIC -DLINUX_IFORT -DNC_HAS_COMPRESSION -DUSE_REAL8 -module ../../../mod -I/shared/ucl/apps/NetCDF/4.3.3.1-intel-2015-update2/include -I/shared/ucl/apps/NetCDF-fortran/4.4.1-intel-2015-update2/include -c -free hco_geotools_mod.F90
ifort -cpp -w -auto -noalign -convert big_endian -O2 -vec-report0 -fp-model source -openmp -mcmodel=medium -shared-intel -DMODEL_CLASSIC -DLINUX_IFORT -DNC_HAS_COMPRESSION -DUSE_REAL8 -module ../../../mod -I/shared/ucl/apps/NetCDF/4.3.3.1-intel-2015-update2/include -I/shared/ucl/apps/NetCDF-fortran/4.4.1-intel-2015-update2/include -c -free hcoio_read_std_mod.F90
ifort -cpp -w -auto -noalign -convert big_endian -O2 -vec-report0 -fp-model source -openmp -mcmodel=medium -shared-intel -DMODEL_CLASSIC -DLINUX_IFORT -DNC_HAS_COMPRESSION -DUSE_REAL8 -module ../../../mod -I/shared/ucl/apps/NetCDF/4.3.3.1-intel-2015-update2/include -I/shared/ucl/apps/NetCDF-fortran/4.4.1-intel-2015-update2/include -c -free hcoio_dataread_mod.F90
ifort -cpp -w -auto -noalign -convert big_endian -O2 -vec-report0 -fp-model source -openmp -mcmodel=medium -shared-intel -DMODEL_CLASSIC -DLINUX_IFORT -DNC_HAS_COMPRESSION -DUSE_REAL8 -module ../../../mod -I/shared/ucl/apps/NetCDF/4.3.3.1-intel-2015-update2/include -I/shared/ucl/apps/NetCDF-fortran/4.4.1-intel-2015-update2/include -c -free hco_readlist_mod.F90
ifort -cpp -w -auto -noalign -convert big_endian -O2 -vec-report0 -fp-model source -openmp -mcmodel=medium -shared-intel -DMODEL_CLASSIC -DLINUX_IFORT -DNC_HAS_COMPRESSION -DUSE_REAL8 -module ../../../mod -I/shared/ucl/apps/NetCDF/4.3.3.1-intel-2015-update2/include -I/shared/ucl/apps/NetCDF-fortran/4.4.1-intel-2015-update2/include -c -free hco_config_mod.F90
ifort -cpp -w -auto -noalign -convert big_endian -O2 -vec-report0 -fp-model source -openmp -mcmodel=medium -shared-intel -DMODEL_CLASSIC -DLINUX_IFORT -DNC_HAS_COMPRESSION -DUSE_REAL8 -module ../../../mod -I/shared/ucl/apps/NetCDF/4.3.3.1-intel-2015-update2/include -I/shared/ucl/apps/NetCDF-fortran/4.4.1-intel-2015-update2/include -c -free hco_driver_mod.F90
ar crs libHCO.a hco_interp_mod.o hco_vertgrid_mod.o hcoio_read_esmf_mod.o hco_extlist_mod.o hco_scale_mod.o hcoio_write_std_mod.o hco_logfile_mod.o hco_filedata_mod.o hcoio_dataread_mod.o hco_chartools_mod.o hco_restart_mod.o hcoio_diagn_mod.o messy_ncregrid_base.o hcoio_write_esmf_mod.o hco_geotools_mod.o hco_diagn_mod.o hco_timeshift_mod.o hco_emislist_mod.o hco_calc_mod.o interpreter.o hco_datacont_mod.o hco_driver_mod.o hco_config_mod.o hco_types_mod.o hco_readlist_mod.o hco_arr_mod.o messy_ncregrid_mpi.o hco_unit_mod.o hco_tidx_mod.o hcoio_read_std_mod.o hco_fluxarr_mod.o hco_error_mod.o hco_clock_mod.o hco_state_mod.o hcoio_messy_mod.o
mv libHCO.a ../../../lib
make[6]: Leaving directory `/lustre/home/ucfaea1/Models/GEOS-Chem/Codes/Code.12.9.3/HEMCO/src/Core'
make[5]: Leaving directory `/lustre/home/ucfaea1/Models/GEOS-Chem/Codes/Code.12.9.3/HEMCO'
make[5]: Entering directory `/lustre/home/ucfaea1/Models/GEOS-Chem/Codes/Code.12.9.3/HEMCO'
make[6]: Entering directory `/lustre/home/ucfaea1/Models/GEOS-Chem/Codes/Code.12.9.3/HEMCO/src/Extensions'
ifort -cpp -w -auto -noalign -convert big_endian -O2 -vec-report0 -fp-model source -openmp -mcmodel=medium -shared-intel -DMODEL_CLASSIC -DLINUX_IFORT -DNC_HAS_COMPRESSION -DUSE_REAL8 -module ../../../mod -I/shared/ucl/apps/NetCDF/4.3.3.1-intel-2015-update2/include -I/shared/ucl/apps/NetCDF-fortran/4.4.1-intel-2015-update2/include -c -free hcox_state_mod.F90
ifort -cpp -w -auto -noalign -convert big_endian -O2 -vec-report0 -fp-model source -openmp -mcmodel=medium -shared-intel -DMODEL_CLASSIC -DLINUX_IFORT -DNC_HAS_COMPRESSION -DUSE_REAL8 -module ../../../mod -I/shared/ucl/apps/NetCDF/4.3.3.1-intel-2015-update2/include -I/shared/ucl/apps/NetCDF-fortran/4.4.1-intel-2015-update2/include -c -free drydep_toolbox_mod.F90
ifort -cpp -w -auto -noalign -convert big_endian -O2 -vec-report0 -fp-model source -openmp -mcmodel=medium -shared-intel -DMODEL_CLASSIC -DLINUX_IFORT -DNC_HAS_COMPRESSION -DUSE_REAL8 -module ../../../mod -I/shared/ucl/apps/NetCDF/4.3.3.1-intel-2015-update2/include -I/shared/ucl/apps/NetCDF-fortran/4.4.1-intel-2015-update2/include -c -free ocean_toolbox_mod.F90
ifort -cpp -w -auto -noalign -convert big_endian -O2 -vec-report0 -fp-model source -openmp -mcmodel=medium -shared-intel -DMODEL_CLASSIC -DLINUX_IFORT -DNC_HAS_COMPRESSION -DUSE_REAL8 -module ../../../mod -I/shared/ucl/apps/NetCDF/4.3.3.1-intel-2015-update2/include -I/shared/ucl/apps/NetCDF-fortran/4.4.1-intel-2015-update2/include -c -free hcox_tools_mod.F90
ifort -cpp -w -auto -noalign -convert big_endian -O2 -vec-report0 -fp-model source -openmp -mcmodel=medium -shared-intel -DMODEL_CLASSIC -DLINUX_IFORT -DNC_HAS_COMPRESSION -DUSE_REAL8 -module ../../../mod -I/shared/ucl/apps/NetCDF/4.3.3.1-intel-2015-update2/include -I/shared/ucl/apps/NetCDF-fortran/4.4.1-intel-2015-update2/include -c hcox_dustdead_mod.F
ifort -cpp -w -auto -noalign -convert big_endian -O2 -vec-report0 -fp-model source -openmp -mcmodel=medium -shared-intel -DMODEL_CLASSIC -DLINUX_IFORT -DNC_HAS_COMPRESSION -DUSE_REAL8 -module ../../../mod -I/shared/ucl/apps/NetCDF/4.3.3.1-intel-2015-update2/include -I/shared/ucl/apps/NetCDF-fortran/4.4.1-intel-2015-update2/include -c hcox_tomas_dustdead_mod.F
ifort -cpp -w -auto -noalign -convert big_endian -O2 -vec-report0 -fp-model source -openmp -mcmodel=medium -shared-intel -DMODEL_CLASSIC -DLINUX_IFORT -DNC_HAS_COMPRESSION -DUSE_REAL8 -module ../../../mod -I/shared/ucl/apps/NetCDF/4.3.3.1-intel-2015-update2/include -I/shared/ucl/apps/NetCDF-fortran/4.4.1-intel-2015-update2/include -c -free hcox_gc_POPs_mod.F90
ifort -cpp -w -auto -noalign -convert big_endian -O2 -vec-report0 -fp-model source -openmp -mcmodel=medium -shared-intel -DMODEL_CLASSIC -DLINUX_IFORT -DNC_HAS_COMPRESSION -DUSE_REAL8 -module ../../../mod -I/shared/ucl/apps/NetCDF/4.3.3.1-intel-2015-update2/include -I/shared/ucl/apps/NetCDF-fortran/4.4.1-intel-2015-update2/include -c -free hcox_seaflux_mod.F90
ifort -cpp -w -auto -noalign -convert big_endian -O2 -vec-report0 -fp-model source -openmp -mcmodel=medium -shared-intel -DMODEL_CLASSIC -DLINUX_IFORT -DNC_HAS_COMPRESSION -DUSE_REAL8 -module ../../../mod -I/shared/ucl/apps/NetCDF/4.3.3.1-intel-2015-update2/include -I/shared/ucl/apps/NetCDF-fortran/4.4.1-intel-2015-update2/include -c -free hcox_ch4wetland_mod.F90
ifort -cpp -w -auto -noalign -convert big_endian -O2 -vec-report0 -fp-model source -openmp -mcmodel=medium -shared-intel -DMODEL_CLASSIC -DLINUX_IFORT -DNC_HAS_COMPRESSION -DUSE_REAL8 -module ../../../mod -I/shared/ucl/apps/NetCDF/4.3.3.1-intel-2015-update2/include -I/shared/ucl/apps/NetCDF-fortran/4.4.1-intel-2015-update2/include -c -free hcox_tomas_jeagle_mod.F90
ifort -cpp -w -auto -noalign -convert big_endian -O2 -vec-report0 -fp-model source -openmp -mcmodel=medium -shared-intel -DMODEL_CLASSIC -DLINUX_IFORT -DNC_HAS_COMPRESSION -DUSE_REAL8 -module ../../../mod -I/shared/ucl/apps/NetCDF/4.3.3.1-intel-2015-update2/include -I/shared/ucl/apps/NetCDF-fortran/4.4.1-intel-2015-update2/include -c -free hcox_gfed_mod.F90
ifort -cpp -w -auto -noalign -convert big_endian -O2 -vec-report0 -fp-model source -openmp -mcmodel=medium -shared-intel -DMODEL_CLASSIC -DLINUX_IFORT -DNC_HAS_COMPRESSION -DUSE_REAL8 -module ../../../mod -I/shared/ucl/apps/NetCDF/4.3.3.1-intel-2015-update2/include -I/shared/ucl/apps/NetCDF-fortran/4.4.1-intel-2015-update2/include -c -free hcox_finn_mod.F90
ifort -cpp -w -auto -noalign -convert big_endian -O2 -vec-report0 -fp-model source -openmp -mcmodel=medium -shared-intel -DMODEL_CLASSIC -DLINUX_IFORT -DNC_HAS_COMPRESSION -DUSE_REAL8 -module ../../../mod -I/shared/ucl/apps/NetCDF/4.3.3.1-intel-2015-update2/include -I/shared/ucl/apps/NetCDF-fortran/4.4.1-intel-2015-update2/include -c -free hcox_custom_mod.F90
ifort -cpp -w -auto -noalign -convert big_endian -O2 -vec-report0 -fp-model source -openmp -mcmodel=medium -shared-intel -DMODEL_CLASSIC -DLINUX_IFORT -DNC_HAS_COMPRESSION -DUSE_REAL8 -module ../../../mod -I/shared/ucl/apps/NetCDF/4.3.3.1-intel-2015-update2/include -I/shared/ucl/apps/NetCDF-fortran/4.4.1-intel-2015-update2/include -c -free hcox_iodine_mod.F90
ifort -cpp -w -auto -noalign -convert big_endian -O2 -vec-report0 -fp-model source -openmp -mcmodel=medium -shared-intel -DMODEL_CLASSIC -DLINUX_IFORT -DNC_HAS_COMPRESSION -DUSE_REAL8 -module ../../../mod -I/shared/ucl/apps/NetCDF/4.3.3.1-intel-2015-update2/include -I/shared/ucl/apps/NetCDF-fortran/4.4.1-intel-2015-update2/include -c -free hcox_gc_RnPbBe_mod.F90
ifort -cpp -w -auto -noalign -convert big_endian -O2 -vec-report0 -fp-model source -openmp -mcmodel=medium -shared-intel -DMODEL_CLASSIC -DLINUX_IFORT -DNC_HAS_COMPRESSION -DUSE_REAL8 -module ../../../mod -I/shared/ucl/apps/NetCDF/4.3.3.1-intel-2015-update2/include -I/shared/ucl/apps/NetCDF-fortran/4.4.1-intel-2015-update2/include -c -free hcox_dustginoux_mod.F90
ifort -cpp -w -auto -noalign -convert big_endian -O2 -vec-report0 -fp-model source -openmp -mcmodel=medium -shared-intel -DMODEL_CLASSIC -DLINUX_IFORT -DNC_HAS_COMPRESSION -DUSE_REAL8 -module ../../../mod -I/shared/ucl/apps/NetCDF/4.3.3.1-intel-2015-update2/include -I/shared/ucl/apps/NetCDF-fortran/4.4.1-intel-2015-update2/include -c -free hcox_paranox_mod.F90
ifort -cpp -w -auto -noalign -convert big_endian -O2 -vec-report0 -fp-model source -openmp -mcmodel=medium -shared-intel -DMODEL_CLASSIC -DLINUX_IFORT -DNC_HAS_COMPRESSION -DUSE_REAL8 -module ../../../mod -I/shared/ucl/apps/NetCDF/4.3.3.1-intel-2015-update2/include -I/shared/ucl/apps/NetCDF-fortran/4.4.1-intel-2015-update2/include -c -free hcox_seasalt_mod.F90
ifort -cpp -w -auto -noalign -convert big_endian -O2 -vec-report0 -fp-model source -openmp -mcmodel=medium -shared-intel -DMODEL_CLASSIC -DLINUX_IFORT -DNC_HAS_COMPRESSION -DUSE_REAL8 -module ../../../mod -I/shared/ucl/apps/NetCDF/4.3.3.1-intel-2015-update2/include -I/shared/ucl/apps/NetCDF-fortran/4.4.1-intel-2015-update2/include -c -free hcox_lightnox_mod.F90
ifort -cpp -w -auto -noalign -convert big_endian -O2 -vec-report0 -fp-model source -openmp -mcmodel=medium -shared-intel -DMODEL_CLASSIC -DLINUX_IFORT -DNC_HAS_COMPRESSION -DUSE_REAL8 -module ../../../mod -I/shared/ucl/apps/NetCDF/4.3.3.1-intel-2015-update2/include -I/shared/ucl/apps/NetCDF-fortran/4.4.1-intel-2015-update2/include -c -free hcox_megan_mod.F90
ifort -cpp -w -auto -noalign -convert big_endian -O2 -vec-report0 -fp-model source -openmp -mcmodel=medium -shared-intel -DMODEL_CLASSIC -DLINUX_IFORT -DNC_HAS_COMPRESSION -DUSE_REAL8 -module ../../../mod -I/shared/ucl/apps/NetCDF/4.3.3.1-intel-2015-update2/include -I/shared/ucl/apps/NetCDF-fortran/4.4.1-intel-2015-update2/include -c -free hcox_soilnox_mod.F90
ifort -cpp -w -auto -noalign -convert big_endian -O2 -vec-report0 -fp-model source -openmp -mcmodel=medium -shared-intel -DMODEL_CLASSIC -DLINUX_IFORT -DNC_HAS_COMPRESSION -DUSE_REAL8 -module ../../../mod -I/shared/ucl/apps/NetCDF/4.3.3.1-intel-2015-update2/include -I/shared/ucl/apps/NetCDF-fortran/4.4.1-intel-2015-update2/include -c -free hcox_volcano_mod.F90
ifort -cpp -w -auto -noalign -convert big_endian -O2 -vec-report0 -fp-model source -openmp -mcmodel=medium -shared-intel -DMODEL_CLASSIC -DLINUX_IFORT -DNC_HAS_COMPRESSION -DUSE_REAL8 -module ../../../mod -I/shared/ucl/apps/NetCDF/4.3.3.1-intel-2015-update2/include -I/shared/ucl/apps/NetCDF-fortran/4.4.1-intel-2015-update2/include -c -free hcox_driver_mod.F90
ar crs libHCOX.a hcox_dustdead_mod.o hcox_tomas_dustdead_mod.o hcox_gc_POPs_mod.o drydep_toolbox_mod.o hcox_seaflux_mod.o hcox_ch4wetland_mod.o hcox_tomas_jeagle_mod.o hcox_gfed_mod.o hcox_tools_mod.o hcox_finn_mod.o hcox_custom_mod.o hcox_iodine_mod.o hcox_gc_RnPbBe_mod.o ocean_toolbox_mod.o hcox_dustginoux_mod.o hcox_paranox_mod.o hcox_seasalt_mod.o hcox_state_mod.o hcox_driver_mod.o hcox_lightnox_mod.o hcox_soilnox_mod.o hcox_volcano_mod.o hcox_megan_mod.o
mv libHCOX.a ../../../lib
make[6]: Leaving directory `/lustre/home/ucfaea1/Models/GEOS-Chem/Codes/Code.12.9.3/HEMCO/src/Extensions'
make[5]: Leaving directory `/lustre/home/ucfaea1/Models/GEOS-Chem/Codes/Code.12.9.3/HEMCO'
make[5]: Entering directory `/lustre/home/ucfaea1/Models/GEOS-Chem/Codes/Code.12.9.3/HEMCO'
make[6]: Entering directory `/lustre/home/ucfaea1/Models/GEOS-Chem/Codes/Code.12.9.3/HEMCO/src/Interfaces'
ifort -cpp -w -auto -noalign -convert big_endian -O2 -vec-report0 -fp-model source -openmp -mcmodel=medium -shared-intel -DMODEL_CLASSIC -DLINUX_IFORT -DNC_HAS_COMPRESSION -DUSE_REAL8 -module ../../../mod -I/shared/ucl/apps/NetCDF/4.3.3.1-intel-2015-update2/include -I/shared/ucl/apps/NetCDF-fortran/4.4.1-intel-2015-update2/include -c -free hcoi_esmf_mod.F90
ifort -cpp -w -auto -noalign -convert big_endian -O2 -vec-report0 -fp-model source -openmp -mcmodel=medium -shared-intel -DMODEL_CLASSIC -DLINUX_IFORT -DNC_HAS_COMPRESSION -DUSE_REAL8 -module ../../../mod -I/shared/ucl/apps/NetCDF/4.3.3.1-intel-2015-update2/include -I/shared/ucl/apps/NetCDF-fortran/4.4.1-intel-2015-update2/include -c -free hcoi_standalone_mod.F90
ifort -cpp -w -auto -noalign -convert big_endian -O2 -vec-report0 -fp-model source -openmp -mcmodel=medium -shared-intel -DMODEL_CLASSIC -DLINUX_IFORT -DNC_HAS_COMPRESSION -DUSE_REAL8 -module ../../../mod -I/shared/ucl/apps/NetCDF/4.3.3.1-intel-2015-update2/include -I/shared/ucl/apps/NetCDF-fortran/4.4.1-intel-2015-update2/include -c -free hemco_standalone.F90
ar crs libHCOI.a hcoi_esmf_mod.o hemco_standalone.o hcoi_standalone_mod.o
mv libHCOI.a ../../../lib
make[6]: Leaving directory `/lustre/home/ucfaea1/Models/GEOS-Chem/Codes/Code.12.9.3/HEMCO/src/Interfaces'
make[5]: Leaving directory `/lustre/home/ucfaea1/Models/GEOS-Chem/Codes/Code.12.9.3/HEMCO'
make[5]: Entering directory `/lustre/home/ucfaea1/Models/GEOS-Chem/Codes/Code.12.9.3/HEMCO'
make[6]: Entering directory `/lustre/home/ucfaea1/Models/GEOS-Chem/Codes/Code.12.9.3/HEMCO/src/Interfaces'
make[7]: Entering directory `/lustre/home/ucfaea1/Models/GEOS-Chem/Codes/Code.12.9.3/HEMCO/src/Interfaces'
ar crs libHCOI.a hcoi_esmf_mod.o hemco_standalone.o hcoi_standalone_mod.o
mv libHCOI.a ../../../lib
make[7]: Leaving directory `/lustre/home/ucfaea1/Models/GEOS-Chem/Codes/Code.12.9.3/HEMCO/src/Interfaces'
make[7]: Entering directory `/lustre/home/ucfaea1/Models/GEOS-Chem/Codes/Code.12.9.3/HEMCO/src/Interfaces'
ifort -cpp -w -auto -noalign -convert big_endian -O2 -vec-report0 -fp-model source -openmp -mcmodel=medium -shared-intel -DMODEL_CLASSIC -DLINUX_IFORT -DNC_HAS_COMPRESSION -DUSE_REAL8 hcoi_esmf_mod.o hemco_standalone.o hcoi_standalone_mod.o -L../../../lib -lHCOI -lHCOX -lHCO -lGeosUtil -lHeaders -lNcUtils -L/shared/ucl/apps/NetCDF-fortran/4.4.1-intel-2015-update2/lib -lnetcdff -L/shared/ucl/apps/NetCDF/4.3.3.1-intel-2015-update2/lib -lnetcdf -lnetcdf -L/shared/ucl/apps/NetCDF/4.3.3.1-intel-2015-update2/lib -lnetcdf -o hemco_standalone.x
make[7]: Leaving directory `/lustre/home/ucfaea1/Models/GEOS-Chem/Codes/Code.12.9.3/HEMCO/src/Interfaces'
make[6]: Leaving directory `/lustre/home/ucfaea1/Models/GEOS-Chem/Codes/Code.12.9.3/HEMCO/src/Interfaces'
make[5]: Leaving directory `/lustre/home/ucfaea1/Models/GEOS-Chem/Codes/Code.12.9.3/HEMCO'
make[4]: Leaving directory `/lustre/home/ucfaea1/Models/GEOS-Chem/Codes/Code.12.9.3/HEMCO'
make[3]: Leaving directory `/lustre/home/ucfaea1/Models/GEOS-Chem/Codes/Code.12.9.3/GeosCore'
make[2]: Leaving directory `/lustre/home/ucfaea1/Models/GEOS-Chem/Codes/Code.12.9.3/GeosCore'
make[1]: Leaving directory `/lustre/home/ucfaea1/Models/GEOS-Chem/Codes/Code.12.9.3/GeosCore'
