# $Id: Makefile.sparc,v 1.37 2006/06/06 14:25:55 bmy Exp $
#=============================================================================
# GEOS-CHEM Makefile for SUN/Sparc (bmy, Wed May 31 10:19:47 2006)
#=============================================================================
SHELL = /bin/sh

# F90 options
FFLAGS = f90 -xpp=cpp -O4 -xarch=v9 

# F90 compilation -- multiprocessor
F90 = $(FFLAGS) -Dmultitask -openmp 

# F90 options -- single processor
#F90 = $(FFLAGS)


OBJS =                    \
CO_strat_pl.o             \
airmas.o                  \
anthroems.o               \
arsl1k.o                  \
backsub.o                 \
biofit.o                  \
boxvl.o                   \
calcrate.o                \
chemdr.o                  \
cleanup.o                 \
decomp.o                  \
diag1.o                   \
diag3.o                   \
diag_2pm.o                \
diagoh.o                  \
emf_scale.o               \
emfossil.o                \
emisop.o                  \
emisop_grass.o            \
emisop_mb.o               \
emissdr.o                 \
emmonot.o                 \
fertadd.o                 \
findmon.o                 \
fyrno3.o                  \
gasconc.o                 \
get_global_ch4.o          \
getifsun.o                \
initialize.o              \
jsparse.o                 \
ksparse.o                 \
lump.o                    \
main.o                    \
ndxx_setup.o              \
ohsave.o                  \
partition.o               \
pderiv.o                  \
physproc.o                \
precipfrac.o              \
pulsing.o                 \
rdisopt.o                 \
rdlai.o                   \
rdland.o                  \
rdlight.o                 \
rdmonot.o                 \
rdsoil.o                  \
readchem.o                \
reader.o                  \
readlai.o                 \
ruralbox.o                \
schem.o                   \
setbase.o                 \
setemdep.o                \
setemis.o                 \
setmodel.o                \
sfcwindsqr.o              \
smvgear.o                 \
soilbase.o                \
soilcrf.o                 \
soilnoxems.o              \
soiltemp.o                \
soiltype.o                \
subfun.o                  \
sunparam.o                \
tcorr.o                   \
tropopause.o              \
update.o                  \
xltmmp.o                  

FJ =                      \
BLKSLV.o                  \
CLDSRF.o                  \
EFOLD.o                   \
FLINT.o                   \
GAUSSP.o                  \
GEN.o                     \
JRATET.o                  \
JVALUE.o                  \
LEGND0.o                  \
MATIN4.o                  \
MIESCT.o                  \
NOABS.o                   \
OPMIE.o                   \
RD_TJPL.o                 \
SPHERE.o                  \
XSEC1D.o                  \
XSECO2.o                  \
XSECO3.o                  \
fast_j.o                  \
fjfunc.o                  \
inphot.o                  \
jv_index.o                \
photoj.o                  \
rd_js.o                   \
rd_prof.o                 \
set_aer.o                 \
set_prof.o                

MODS =                    \
charpak_mod.o             \
error_mod.o               \
logical_mod.o             \
directory_mod.o           \
unix_cmds_mod.o           \
tracer_mod.o              \
julday_mod.o              \
file_mod.o                \
grid_mod.o                \
time_mod.o                \
bpch2_mod.o               \
regrid_1x1_mod.o          \
pressure_mod.o            \
transfer_mod.o            \
future_emissions_mod.o    \
tropopause_mod.o          \
lai_mod.o                 \
tracerid_mod.o            \
benchmark_mod.o           \
comode_mod.o              \
diag_mod.o                \
dao_mod.o                 \
pbl_mix_mod.o             \
diag03_mod.o              \
diag04_mod.o              \
diag41_mod.o              \
diag42_mod.o              \
diag48_mod.o              \
diag49_mod.o              \
diag50_mod.o              \
diag51_mod.o              \
diag56_mod.o              \
diag_oh_mod.o             \
diag_pl_mod.o             \
ocean_mercury_mod.o       \
drydep_mod.o              \
emep_mod.o                \
epa_nei_mod.o             \
geia_mod.o                \
global_ch4_mod.o          \
global_hno3_mod.o         \
global_no3_mod.o          \
global_nox_mod.o          \
global_oh_mod.o           \
global_o3_mod.o           \
uvalbedo_mod.o            \
RnPbBe_mod.o              \
Kr85_mod.o                \
acetone_mod.o             \
aerosol_mod.o             \
aircraft_nox_mod.o        \
biofuel_mod.o             \
gc_biomass_mod.o          \
gfed2_biomass_mod.o       \
biomass_mod.o             \
c2h6_mod.o                \
ch3i_mod.o                \
a3_read_mod.o             \
a6_read_mod.o             \
i6_read_mod.o             \
gcap_read_mod.o           \
gwet_read_mod.o           \
xtra_read_mod.o           \
megan_mod.o               \
carbon_mod.o              \
lightning_nox_mod.o       \
lightning_nox_nl_mod.o    \
optdepth_mod.o            \
planeflight_mod.o         \
restart_mod.o             \
rpmares_mod.o             \
isoropia_mod.o            \
wetscav_mod.o             \
seasalt_mod.o             \
sulfate_mod.o             \
hcn_ch3cn_mod.o           \
tagged_co_mod.o           \
tagged_ox_mod.o           \
gcap_convect_mod.o        \
fvdas_convect_mod.o       \
convection_mod.o          \
pjc_pfix_mod.o            \
dust_dead_mod.o           \
dust_mod.o                \
co2_mod.o                 \
mercury_mod.o             \
toms_mod.o                \
tpcore_bc_mod.o           \
tpcore_fvdas_mod.o        \
tpcore_mod.o              \
tpcore_window_mod.o       \
transport_mod.o           \
upbdflx_mod.o             \
chemistry_mod.o           \
emissions_mod.o           \
gamap_mod.o               \
input_mod.o

#=============================================================================
#  Executable with FAST-J (default)
#=============================================================================
geos          : $(MODS) $(OBJS) $(FJ)
		$(F90)  $(MODS) $(OBJS) $(FJ) -o geos

#==============================================================================
#  Dependencies Listing
#==============================================================================
BLKSLV.o                   : BLKSLV.F                   jv_mie.h 
CLDSRF.o                   : CLDSRF.F                   cmn_fj.h CMN_SIZE define.h jv_cmn.h 
CO_strat_pl.o              : CO_strat_pl.F              CMN_SIZE define.h 
EFOLD.o                    : EFOLD.F                    
FLINT.o                    : FLINT.F                    
GAUSSP.o                   : GAUSSP.F                   
GEN.o                      : GEN.F                      jv_mie.h 
JRATET.o                   : JRATET.F                   cmn_fj.h CMN_SIZE define.h jv_cmn.h 
JVALUE.o                   : JVALUE.F                   cmn_fj.h CMN_SIZE define.h jv_cmn.h 
Kr85_mod.o                 : Kr85_mod.F                 CMN_DIAG CMN_O3 CMN_SIZE define.h define.h 
LEGND0.o                   : LEGND0.F                   
MATIN4.o                   : MATIN4.F                   
MIESCT.o                   : MIESCT.F                   jv_mie.h 
NOABS.o                    : NOABS.F                    
OPMIE.o                    : OPMIE.F                    cmn_fj.h CMN_SIZE define.h jv_cmn.h jv_mie.h 
RD_TJPL.o                  : RD_TJPL.F                  cmn_fj.h CMN_SIZE define.h jv_cmn.h 
RnPbBe_mod.o               : RnPbBe_mod.F               CMN_DEP CMN_DIAG CMN_SIZE define.h define.h 
SPHERE.o                   : SPHERE.F                   cmn_fj.h CMN_SIZE define.h jv_cmn.h 
XSEC1D.o                   : XSEC1D.F                   cmn_fj.h CMN_SIZE define.h jv_cmn.h 
XSECO2.o                   : XSECO2.F                   cmn_fj.h CMN_SIZE define.h jv_cmn.h 
XSECO3.o                   : XSECO3.F                   cmn_fj.h CMN_SIZE define.h jv_cmn.h 
a3_read_mod.o              : a3_read_mod.F              CMN_DIAG CMN_SIZE define.h 
a6_read_mod.o              : a6_read_mod.F              CMN_DIAG CMN_GCTM CMN_SIZE define.h 
acetone_mod.o              : acetone_mod.F              CMN_DEP CMN_DIAG CMN_MONOT CMN_SIZE define.h 
aerosol_mod.o              : aerosol_mod.F              CMN_DIAG CMN_SIZE define.h cmn_fj.h CMN_SIZE define.h comode.h jv_cmn.h 
aircraft_nox_mod.o         : aircraft_nox_mod.F         CMN CMN_DIAG CMN_NOX CMN_SIZE define.h 
airmas.o                   : airmas.F                   
anthroems.o                : anthroems.F                CMN_O3 CMN_SIZE define.h comode.h 
arsl1k.o                   : arsl1k.F                   
backsub.o                  : backsub.F                  CMN_SIZE define.h comode.h 
benchmark_mod.o            : benchmark_mod.F            CMN_SIZE define.h 
biofit.o                   : biofit.F                   CMN_DEP CMN_SIZE define.h 
biofuel_mod.o              : biofuel_mod.F              CMN_DIAG CMN_SIZE define.h 
biomass_mod.o              : biomass_mod.F              CMN_DIAG CMN_SIZE define.h 
boxvl.o                    : boxvl.F                    
bpch2_mod.o                : bpch2_mod.F                CMN_SIZE define.h define.h 
c2h6_mod.o                 : c2h6_mod.F                 CMN CMN_DIAG CMN_O3 CMN_SIZE define.h 
calcrate.o                 : calcrate.F                 CMN CMN_DIAG CMN_SIZE define.h comode.h 
carbon_mod.o               : carbon_mod.F               CMN CMN_DIAG CMN_GCTM CMN_O3 CMN_SIZE define.h 
ch3i_mod.o                 : ch3i_mod.F                 CMN_DEP CMN_DIAG CMN_SIZE define.h comode.h 
charpak_mod.o              : charpak_mod.F              
chemdr.o                   : chemdr.F                   CMN CMN_DEP CMN_DIAG CMN_NOX CMN_O3 CMN_SIZE define.h comode.h 
chemistry_mod.o            : chemistry_mod.F            CMN_DIAG CMN_SIZE define.h comode.h 
cleanup.o                  : cleanup.F                  
co2_mod.o                  : co2_mod.F                  CMN_SIZE define.h 
comode_mod.o               : comode_mod.F               CMN_SIZE define.h comode.h 
convection_mod.o           : convection_mod.F           CMN_DIAG CMN_SIZE define.h define.h 
dao_mod.o                  : dao_mod.F                  CMN_GCTM CMN_SIZE define.h 
decomp.o                   : decomp.F                   CMN_SIZE define.h comode.h 
diag03_mod.o               : diag03_mod.F               CMN_DIAG CMN_SIZE define.h 
diag04_mod.o               : diag04_mod.F               CMN_DIAG CMN_SIZE define.h 
diag1.o                    : diag1.F                    CMN_DIAG CMN_GCTM CMN_O3 CMN_SIZE define.h 
diag3.o                    : diag3.F                    CMN CMN_DIAG CMN_O3 CMN_SIZE define.h comode.h 
diag41_mod.o               : diag41_mod.F               CMN_DIAG CMN_SIZE define.h 
diag42_mod.o               : diag42_mod.F               CMN_DIAG CMN_SIZE define.h 
diag48_mod.o               : diag48_mod.F               CMN_GCTM CMN_O3 CMN_SIZE define.h cmn_fj.h CMN_SIZE define.h jv_cmn.h 
diag49_mod.o               : diag49_mod.F               CMN_GCTM CMN_O3 CMN_SIZE define.h cmn_fj.h CMN_SIZE define.h jv_cmn.h 
diag50_mod.o               : diag50_mod.F               CMN_GCTM CMN_O3 CMN_SIZE define.h cmn_fj.h CMN_SIZE define.h jv_cmn.h 
diag51_mod.o               : diag51_mod.F               CMN_GCTM CMN_O3 CMN_SIZE define.h cmn_fj.h CMN_SIZE define.h jv_cmn.h 
diag56_mod.o               : diag56_mod.F               CMN_DIAG CMN_SIZE define.h 
diag_2pm.o                 : diag_2pm.F                 CMN_DIAG CMN_SIZE define.h 
diag_mod.o                 : diag_mod.F                 
diag_oh_mod.o              : diag_oh_mod.F              CMN_SIZE define.h comode.h 
diag_pl_mod.o              : diag_pl_mod.F              CMN_DIAG CMN_SIZE define.h comode.h 
diagoh.o                   : diagoh.F                   CMN_DIAG CMN_O3 CMN_SIZE define.h 
directory_mod.o            : directory_mod.F            
drydep_mod.o               : drydep_mod.F               CMN_DEP CMN_DIAG CMN_GCTM CMN_SIZE define.h CMN_VEL commsoil.h comode.h 
dust_dead_mod.o            : dust_dead_mod.F            CMN_GCTM CMN_SIZE define.h 
dust_mod.o                 : dust_mod.F                 CMN_DIAG CMN_GCTM CMN_SIZE define.h cmn_fj.h CMN_SIZE define.h comode.h jv_cmn.h 
emep_mod.o                 : emep_mod.F                 CMN_SIZE define.h 
emf_scale.o                : emf_scale.F                CMN_O3 CMN_SIZE define.h comode.h 
emfossil.o                 : emfossil.F                 CMN_DIAG CMN_O3 CMN_SIZE define.h comode.h 
emisop.o                   : emisop.F                   CMN_ISOP CMN_SIZE define.h CMN_VEL 
emisop_grass.o             : emisop_grass.F             CMN_ISOP CMN_SIZE define.h CMN_VEL 
emisop_mb.o                : emisop_mb.F                CMN_ISOP CMN_SIZE define.h CMN_VEL 
emissdr.o                  : emissdr.F                  CMN CMN_DIAG CMN_MONOT CMN_NOX CMN_O3 CMN_SIZE define.h comode.h 
emissions_mod.o            : emissions_mod.F            CMN_SIZE define.h 
emmonot.o                  : emmonot.F                  CMN_MONOT CMN_SIZE define.h CMN_VEL 
epa_nei_mod.o              : epa_nei_mod.F              CMN_SIZE define.h 
error_mod.o                : error_mod.F                define.h 
fast_j.o                   : fast_j.F                   cmn_fj.h CMN_SIZE define.h jv_cmn.h 
fertadd.o                  : fertadd.F                  CMN_SIZE define.h commsoil.h 
file_mod.o                 : file_mod.F                 define.h 
findmon.o                  : findmon.F                  
fjfunc.o                   : fjfunc.F                   cmn_fj.h CMN_SIZE define.h 
future_emissions_mod.o     : future_emissions_mod.F     CMN_SIZE define.h 
fvdas_convect_mod.o        : fvdas_convect_mod.F        CMN_DIAG CMN_SIZE define.h 
fyrno3.o                   : fyrno3.F                   
gamap_mod.o                : gamap_mod.F                CMN_DIAG CMN_SIZE define.h 
gasconc.o                  : gasconc.F                  CMN_SIZE define.h comode.h 
gc_biomass_mod.o           : gc_biomass_mod.F           CMN_SIZE define.h 
gcap_convect_mod.o         : gcap_convect_mod.F         CMN_DIAG CMN_SIZE define.h 
gcap_read_mod.o            : gcap_read_mod.F            CMN_DIAG CMN_GCTM CMN_SIZE define.h 
geia_mod.o                 : geia_mod.F                 CMN_SIZE define.h 
get_global_ch4.o           : get_global_ch4.F           
getifsun.o                 : getifsun.F                 CMN_SIZE define.h comode.h 
gfed2_biomass_mod.o        : gfed2_biomass_mod.F        CMN_SIZE define.h 
global_ch4_mod.o           : global_ch4_mod.F           CMN CMN_DIAG CMN_SIZE define.h 
global_hno3_mod.o          : global_hno3_mod.F          CMN_SIZE define.h 
global_no3_mod.o           : global_no3_mod.F           CMN_SIZE define.h 
global_nox_mod.o           : global_nox_mod.F           CMN_SIZE define.h 
global_o3_mod.o            : global_o3_mod.F            CMN_SIZE define.h 
global_oh_mod.o            : global_oh_mod.F            CMN_SIZE define.h 
grid_mod.o                 : grid_mod.F                 CMN_GCTM CMN_SIZE define.h 
gwet_read_mod.o            : gwet_read_mod.F            CMN_DIAG CMN_SIZE define.h 
hcn_ch3cn_mod.o            : hcn_ch3cn_mod.F            CMN_DEP CMN_DIAG CMN_SIZE define.h 
i6_read_mod.o              : i6_read_mod.F              CMN_DIAG CMN_SIZE define.h 
ifort_errmsg.o             : ifort_errmsg.F             
initialize.o               : initialize.F               CMN_DIAG CMN_SIZE define.h 
inphot.o                   : inphot.F                   cmn_fj.h CMN_SIZE define.h jv_cmn.h 
input_mod.o                : input_mod.F                CMN CMN_DIAG CMN_O3 CMN_SIZE define.h define.h 
isoropia_mod.o             : isoropia_mod.F             CMN_SIZE define.h isoropia.h 
jsparse.o                  : jsparse.F                  CMN_SIZE define.h comode.h 
julday_mod.o               : julday_mod.F               
jv_index.o                 : jv_index.F                 cmn_fj.h CMN_SIZE define.h comode.h 
ksparse.o                  : ksparse.F                  CMN_SIZE define.h comode.h 
lai_mod.o                  : lai_mod.F                  CMN_SIZE define.h 
lightning_nox_mod.o        : lightning_nox_mod.F        CMN_DIAG CMN_GCTM CMN_NOX CMN_SIZE define.h define.h 
lightning_nox_nl_mod.o     : lightning_nox_nl_mod.F     CMN_DIAG CMN_GCTM CMN_NOX CMN_SIZE define.h 
logical_mod.o              : logical_mod.F              
lump.o                     : lump.F                     CMN_SIZE define.h comode.h 
main.o                     : main.F                     CMN_DIAG CMN_GCTM CMN_SIZE define.h 
megan_mod.o                : megan_mod.F                CMN_GCTM CMN_SIZE define.h 
mercury_mod.o              : mercury_mod.F              CMN_DIAG CMN_GCTM CMN_SIZE define.h 
ndxx_setup.o               : ndxx_setup.F               CMN_DIAG CMN_SIZE define.h 
ocean_mercury_mod.o        : ocean_mercury_mod.F        CMN_DEP CMN_SIZE define.h 
ohsave.o                   : ohsave.F                   CMN_SIZE define.h comode.h 
optdepth_mod.o             : optdepth_mod.F             CMN_DIAG CMN_SIZE define.h 
partition.o                : partition.F                CMN_SIZE define.h comode.h 
pbl_mix_mod.o              : pbl_mix_mod.F              CMN_DIAG CMN_GCTM CMN_SIZE define.h 
pderiv.o                   : pderiv.F                   CMN_SIZE define.h comode.h 
photoj.o                   : photoj.F                   cmn_fj.h CMN_SIZE define.h jv_cmn.h 
physproc.o                 : physproc.F                 CMN_SIZE define.h comode.h 
pjc_pfix_mod.o             : pjc_pfix_mod.F             CMN CMN_GCTM CMN_SIZE define.h 
planeflight_mod.o          : planeflight_mod.F          CMN_DIAG CMN_SIZE define.h cmn_fj.h CMN_SIZE define.h comode.h jv_cmn.h 
precipfrac.o               : precipfrac.F               CMN_SIZE define.h 
pressure_mod.o             : pressure_mod.F             CMN_SIZE define.h 
pulsing.o                  : pulsing.F                  CMN_SIZE define.h commsoil.h 
rd_js.o                    : rd_js.F                    cmn_fj.h CMN_SIZE define.h jv_cmn.h 
rd_prof.o                  : rd_prof.F                  cmn_fj.h CMN_SIZE define.h jv_cmn.h 
rdisopt.o                  : rdisopt.F                  CMN_SIZE define.h 
rdlai.o                    : rdlai.F                    CMN_DEP CMN_SIZE define.h CMN_VEL 
rdland.o                   : rdland.F                   CMN_DEP CMN_SIZE define.h CMN_VEL 
rdlight.o                  : rdlight.F                  CMN_ISOP CMN_SIZE define.h 
rdmonot.o                  : rdmonot.F                  CMN_SIZE define.h 
rdsoil.o                   : rdsoil.F                   CMN_SIZE define.h commsoil.h 
readchem.o                 : readchem.F                 CMN_SIZE define.h comode.h 
reader.o                   : reader.F                   CMN_GCTM CMN_SIZE define.h comode.h 
readlai.o                  : readlai.F                  CMN_DEP CMN_SIZE define.h CMN_VEL 
regrid_1x1_mod.o           : regrid_1x1_mod.F           CMN_GCTM CMN_SIZE define.h 
restart_mod.o              : restart_mod.F              CMN_SIZE define.h 
rpmares_mod.o              : rpmares_mod.F              CMN_SIZE define.h 
ruralbox.o                 : ruralbox.F                 CMN_SIZE define.h comode.h 
schem.o                    : schem.F                    CMN_SIZE define.h 
seasalt_mod.o              : seasalt_mod.F              CMN_DIAG CMN_GCTM CMN_SIZE define.h 
set_aer.o                  : set_aer.F                  cmn_fj.h CMN_SIZE define.h jv_cmn.h 
set_prof.o                 : set_prof.F                 cmn_fj.h CMN_SIZE define.h jv_cmn.h 
setbase.o                  : setbase.F                  CMN CMN_ISOP CMN_MONOT CMN_SIZE define.h CMN_VEL 
setemdep.o                 : setemdep.F                 CMN_SIZE define.h comode.h 
setemis.o                  : setemis.F                  CMN_DIAG CMN_NOX CMN_SIZE define.h comode.h 
setmodel.o                 : setmodel.F                 CMN_SIZE define.h comode.h 
sfcwindsqr.o               : sfcwindsqr.F               CMN_SIZE define.h 
smvgear.o                  : smvgear.F                  CMN_SIZE define.h comode.h 
soilbase.o                 : soilbase.F                 CMN_SIZE define.h commsoil.h 
soilcrf.o                  : soilcrf.F                  CMN_DEP CMN_SIZE define.h commsoil.h 
soilnoxems.o               : soilnoxems.F               CMN_DEP CMN_DIAG CMN_NOX CMN_SIZE define.h commsoil.h 
soiltemp.o                 : soiltemp.F                 CMN_SIZE define.h commsoil.h 
soiltype.o                 : soiltype.F                 CMN_SIZE define.h commsoil.h 
subfun.o                   : subfun.F                   CMN_SIZE define.h comode.h 
sulfate_mod.o              : sulfate_mod.F              CMN_DIAG CMN_GCTM CMN_O3 CMN_SIZE define.h cmn_fj.h CMN_SIZE define.h 
sunparam.o                 : sunparam.F                 
tagged_co_mod.o            : tagged_co_mod.F            CMN_DIAG CMN_O3 CMN_SIZE define.h 
tagged_ox_mod.o            : tagged_ox_mod.F            CMN_DIAG CMN_GCTM CMN_SIZE define.h 
tcorr.o                    : tcorr.F                    
time_mod.o                 : time_mod.F                 define.h 
toms_mod.o                 : toms_mod.F                 CMN_SIZE define.h 
tpcore_bc_mod.o            : tpcore_bc_mod.F            CMN CMN_SIZE define.h 
tpcore_fvdas_mod.o         : tpcore_fvdas_mod.F90         
	$(F90) -c -xtypemap=real:64 $*.F90
tpcore_mod.o               : tpcore_mod.F               CMN_DIAG CMN_GCTM CMN_SIZE define.h define.h 
	$(F90) -c -xtypemap=real:64 $*.F
tpcore_window_mod.o        : tpcore_window_mod.F        CMN_DIAG CMN_GCTM CMN_SIZE define.h define.h 
	$(F90) -c -xtypemap=real:64 $*.F
tracer_mod.o               : tracer_mod.F               CMN_SIZE define.h 
tracerid_mod.o             : tracerid_mod.F             CMN_SIZE define.h comode.h 
transfer_mod.o             : transfer_mod.F             CMN_SIZE define.h 
transport_mod.o            : transport_mod.F            CMN CMN_DIAG CMN_GCTM CMN_SIZE define.h 
tropopause.o               : tropopause.F               CMN CMN_DIAG CMN_SIZE define.h 
tropopause_mod.o           : tropopause_mod.F           CMN CMN_SIZE define.h 
unix_cmds_mod.o            : unix_cmds_mod.F            
upbdflx_mod.o              : upbdflx_mod.F              CMN_GCTM CMN_SIZE define.h 
update.o                   : update.F                   CMN_SIZE define.h comode.h 
uvalbedo_mod.o             : uvalbedo_mod.F             CMN_SIZE define.h 
wetscav_mod.o              : wetscav_mod.F              CMN_DIAG CMN_SIZE define.h 
xltmmp.o                   : xltmmp.F                   CMN_SIZE define.h 
xtra_read_mod.o            : xtra_read_mod.F            CMN_DIAG CMN_SIZE define.h 

#=============================================================================
#  Other Makefile Commands
#=============================================================================
clean:
        rm -f *.o *.mod geos geos_sj geosco

.SUFFIXES: .F .F90
.F.o:                   ; $(F90) -c $*.F
.F90.o:                 ; $(F90) -c -freeform $*.F90 
