#=============================================================================
# $Id: Makefile.compaq,v 1.47 2009/01/28 20:22:06 bmy Exp $
#
# GEOS-Chem Makefile for COMPAQ/Alpha (bmy, Wed Jan 28 15:09:02 2009)
#
# NOTE: For GEOS-CHEM v5-07-08, we must compile everything -fast except 
#       "calcrate.f", which must be compiled -O2.  (hamid, bmy, 10/10/03)
#=============================================================================
SHELL = /bin/sh

# F90 flags
FFLAGS = f90 -cpp -convert big_endian -automatic
Fopt   = -fast

# F90 compilation -- multiprocessor
F90 = $(FFLAGS) -omp -Dmultitask

# F90 compilation -- single processor
#F90 = $(FFLAGS)

# Compaq Alpha C compiler flags (for unzip)
CFLAGS = -O3 -arch host -c -threads -I/usr/local/include
ZLIB   = -L/usr/local/lib -lz

OBJS =                        \
CO_strat_pl.o                 \
airmas.o                      \
anthroems.o                   \
arctas_ship_emiss_mod.o       \
arsl1k.o                      \
backsub.o                     \
biofit.o                      \
boxvl.o                       \
cac_anthro_mod.o              \
calcrate.o                    \
chemdr.o                      \
cleanup.o                     \
decomp.o                      \
diag1.o                       \
diag3.o                       \
diag_2pm.o                    \
diagoh.o                      \
emf_scale.o                   \
emfossil.o                    \
emisop.o                      \
emisop_grass.o                \
emisop_mb.o                   \
emissdr.o                     \
emmonot.o                     \
fertadd.o                     \
findmon.o                     \
fyrno3.o                      \
gasconc.o                     \
get_global_ch4.o              \
getifsun.o                    \
initialize.o                  \
jsparse.o                     \
ksparse.o                     \
lump.o                        \
main.o                        \
ndxx_setup.o                  \
ohsave.o                      \
partition.o                   \
pderiv.o                      \
physproc.o                    \
precipfrac.o                  \
pulsing.o                     \
rdisopt.o                     \
rdlai.o                       \
rdland.o                      \
rdlight.o                     \
rdmonot.o                     \
rdsoil.o                      \
readchem.o                    \
reader.o                      \
readlai.o                     \
ruralbox.o                    \
scale_anthro_mod.o            \
schem.o                       \
setbase.o                     \
setemdep.o                    \
setemis.o                     \
setmodel.o                    \
sfcwindsqr.o                  \
smvgear.o                     \
soilbase.o                    \
soilcrf.o                     \
soilnoxems.o                  \
soiltemp.o                    \
soiltype.o                    \
subfun.o                      \
sunparam.o                    \
tcorr.o                       \
tpcore_fvdas_mod.o            \
tropopause.o                  \
update.o                      \
vistas_anthro_mod.o           \
xltmmp.o                      

FJ =                          \
BLKSLV.o                      \
CLDSRF.o                      \
EFOLD.o                       \
FLINT.o                       \
GAUSSP.o                      \
GEN.o                         \
JRATET.o                      \
JVALUE.o                      \
LEGND0.o                      \
MATIN4.o                      \
MIESCT.o                      \
NOABS.o                       \
OPMIE.o                       \
RD_TJPL.o                     \
SPHERE.o                      \
XSEC1D.o                      \
XSECO2.o                      \
XSECO3.o                      \
fast_j.o                      \
fjfunc.o                      \
inphot.o                      \
jv_index.o                    \
mmran_16.o                    \
photoj.o                      \
rd_js.o                       \
rd_prof.o                     \
set_aer.o                     \
set_prof.o                    

MODS =                        \
charpak_mod.o                 \
error_mod.o                   \
logical_mod.o                 \
directory_mod.o               \
unix_cmds_mod.o               \
tracer_mod.o                  \
julday_mod.o                  \
file_mod.o                    \
grid_mod.o                    \
time_mod.o                    \
bpch2_mod.o                   \
regrid_1x1_mod.o              \
pressure_mod.o                \
transfer_mod.o                \
future_emissions_mod.o        \
lai_mod.o                     \
tracerid_mod.o                \
benchmark_mod.o               \
comode_mod.o                  \
diag_mod.o                    \
dao_mod.o                     \
tropopause_mod.o              \
pbl_mix_mod.o                 \
diag03_mod.o                  \
diag04_mod.o                  \
diag41_mod.o                  \
diag42_mod.o                  \
diag48_mod.o                  \
diag49_mod.o                  \
diag50_mod.o                  \
diag51_mod.o                  \
diag56_mod.o                  \
diag_oh_mod.o                 \
diag_pl_mod.o                 \
ocean_mercury_mod.o           \
drydep_mod.o                  \
scale_anthro_mod.o            \
edgar_mod.o                   \
bravo_mod.o                   \
emep_mod.o                    \
epa_nei_mod.o                 \
streets_anthro_mod.o          \
arctas_ship_emiss_mod.o       \
cac_anthro_mod.o              \
vistas_anthro_mod.o           \
geia_mod.o                    \
global_ch4_mod.o              \
global_hno3_mod.o             \
global_no3_mod.o              \
global_nox_mod.o              \
global_oh_mod.o               \
global_o1d_mod.o              \
global_o3_mod.o               \
uvalbedo_mod.o                \
RnPbBe_mod.o                  \
Kr85_mod.o                    \
acetone_mod.o                 \
aerosol_mod.o                 \
aircraft_nox_mod.o            \
biofuel_mod.o                 \
gc_biomass_mod.o              \
gfed2_biomass_mod.o           \
biomass_mod.o                 \
c2h6_mod.o                    \
ch3i_mod.o                    \
a3_read_mod.o                 \
a6_read_mod.o                 \
i6_read_mod.o                 \
gcap_read_mod.o               \
gwet_read_mod.o               \
xtra_read_mod.o               \
megan_mod.o                   \
carbon_mod.o                  \
lightning_nox_mod.o           \
optdepth_mod.o                \
planeflight_mod.o             \
restart_mod.o                 \
rpmares_mod.o                 \
isoropia_mod.o                \
wetscav_mod.o                 \
seasalt_mod.o                 \
sulfate_mod.o                 \
hcn_ch3cn_mod.o               \
tagged_co_mod.o               \
tagged_ox_mod.o               \
h2_hd_mod.o                   \
gcap_convect_mod.o            \
fvdas_convect_mod.o           \
convection_mod.o              \
pjc_pfix_mod.o                \
pjc_pfix_geos5_window_mod.o   \
dust_dead_mod.o               \
dust_mod.o                    \
co2_mod.o                     \
mercury_mod.o                 \
toms_mod.o                    \
tpcore_bc_mod.o               \
tpcore_fvdas_mod.o            \
tpcore_mod.o                  \
tpcore_window_mod.o           \
tpcore_geos5_window_mod.o     \
transport_mod.o               \
upbdflx_mod.o                 \
chemistry_mod.o               \
emissions_mod.o               \
gamap_mod.o                   \
input_mod.o

#=============================================================================
#  Executables and Documenation
#=============================================================================
geos:   $(MODS) $(OBJS) $(FJ)
	$(F90)  $(Fopt) $(MODS) $(OBJS) $(FJ) $(ZLIB) -o geos

# Build GEOS-Chem documenation w/ ProTeX
doc:
	@$(MAKE) -C doc all

# Remove all *.tex, *.ps, and *.pdf files from the doc subdirectory
docclean: 
	@$(MAKE) -C doc clean


#==============================================================================
#  Dependencies Listing
#==============================================================================
BLKSLV.o                       : BLKSLV.f                       jv_mie.h 
CLDSRF.o                       : CLDSRF.f                       cmn_fj.h CMN_SIZE define.h jv_cmn.h 
CO_strat_pl.o                  : CO_strat_pl.f                  CMN_SIZE define.h 
EFOLD.o                        : EFOLD.f                        
FLINT.o                        : FLINT.f                        
GAUSSP.o                       : GAUSSP.f                       
GEN.o                          : GEN.f                          jv_mie.h 
JRATET.o                       : JRATET.f                       cmn_fj.h CMN_SIZE define.h jv_cmn.h 
JVALUE.o                       : JVALUE.f                       cmn_fj.h CMN_SIZE define.h jv_cmn.h 
Kr85_mod.o                     : Kr85_mod.f                     CMN_DIAG CMN_O3 CMN_SIZE define.h define.h 
LEGND0.o                       : LEGND0.f                       
MATIN4.o                       : MATIN4.f                       
MIESCT.o                       : MIESCT.f                       jv_mie.h 
NOABS.o                        : NOABS.f                        
OPMIE.o                        : OPMIE.f                        cmn_fj.h CMN_SIZE define.h jv_cmn.h jv_mie.h 
RD_TJPL.o                      : RD_TJPL.f                      cmn_fj.h CMN_SIZE define.h jv_cmn.h 
RnPbBe_mod.o                   : RnPbBe_mod.f                   CMN_DEP CMN_DIAG CMN_SIZE define.h define.h 
SPHERE.o                       : SPHERE.f                       cmn_fj.h CMN_SIZE define.h jv_cmn.h 
XSEC1D.o                       : XSEC1D.f                       cmn_fj.h CMN_SIZE define.h jv_cmn.h 
XSECO2.o                       : XSECO2.f                       cmn_fj.h CMN_SIZE define.h jv_cmn.h 
XSECO3.o                       : XSECO3.f                       cmn_fj.h CMN_SIZE define.h jv_cmn.h 
a3_read_mod.o                  : a3_read_mod.f                  CMN_DIAG CMN_SIZE define.h 
a6_read_mod.o                  : a6_read_mod.f                  CMN_DIAG CMN_GCTM CMN_SIZE define.h 
acetone_mod.o                  : acetone_mod.f                  CMN_DEP CMN_DIAG CMN_MONOT CMN_SIZE define.h 
aerosol_mod.o                  : aerosol_mod.f                  CMN_DIAG CMN_SIZE define.h cmn_fj.h CMN_SIZE define.h comode.h jv_cmn.h 
aircraft_nox_mod.o             : aircraft_nox_mod.f             CMN CMN_DIAG CMN_SIZE define.h 
airmas.o                       : airmas.f                       
anthroems.o                    : anthroems.f                    CMN_O3 CMN_SIZE define.h comode.h 
arctas_ship_emiss_mod.o        : arctas_ship_emiss_mod.f        CMN_SIZE define.h 
arsl1k.o                       : arsl1k.f                       
backsub.o                      : backsub.f                      CMN_SIZE define.h comode.h 
benchmark_mod.o                : benchmark_mod.f                CMN_SIZE define.h 
biofit.o                       : biofit.f                       CMN_DEP CMN_SIZE define.h 
biofuel_mod.o                  : biofuel_mod.f                  CMN_DIAG CMN_O3 CMN_SIZE define.h 
biomass_mod.o                  : biomass_mod.f                  CMN_DIAG CMN_SIZE define.h 
boxvl.o                        : boxvl.f                        
bpch2_mod.o                    : bpch2_mod.f                    CMN_SIZE define.h define.h 
bravo_mod.o                    : bravo_mod.f                    CMN_O3 CMN_SIZE define.h 
c2h6_mod.o                     : c2h6_mod.f                     CMN CMN_DIAG CMN_O3 CMN_SIZE define.h 
cac_anthro_mod.o               : cac_anthro_mod.f               CMN_O3 CMN_SIZE define.h 
calcrate.o                     : calcrate.f                     CMN CMN_DIAG CMN_SIZE define.h comode.h 
carbon_mod.o                   : carbon_mod.f                   CMN CMN_DIAG CMN_GCTM CMN_O3 CMN_SIZE define.h comode.h 
ch3i_mod.o                     : ch3i_mod.f                     CMN_DEP CMN_DIAG CMN_SIZE define.h comode.h 
charpak_mod.o                  : charpak_mod.f                  
chemdr.o                       : chemdr.f                       CMN CMN_DEP CMN_DIAG CMN_NOX CMN_O3 CMN_SIZE define.h comode.h 
chemistry_mod.o                : chemistry_mod.f                CMN_DIAG CMN_SIZE define.h comode.h 
cleanup.o                      : cleanup.f                      define.h 
co2_mod.o                      : co2_mod.f                      CMN_SIZE define.h 
comode_mod.o                   : comode_mod.f                   CMN_SIZE define.h comode.h 
convection_mod.o               : convection_mod.f               CMN_DIAG CMN_SIZE define.h 
dao_mod.o                      : dao_mod.f                      CMN_GCTM CMN_SIZE define.h 
decomp.o                       : decomp.f                       CMN_SIZE define.h comode.h 
diag03_mod.o                   : diag03_mod.f                   CMN_DIAG CMN_SIZE define.h 
diag04_mod.o                   : diag04_mod.f                   CMN_DIAG CMN_SIZE define.h 
diag1.o                        : diag1.f                        CMN_DIAG CMN_GCTM CMN_O3 CMN_SIZE define.h 
diag3.o                        : diag3.f                        CMN CMN_DIAG CMN_O3 CMN_SIZE define.h comode.h 
diag41_mod.o                   : diag41_mod.f                   CMN_DIAG CMN_SIZE define.h 
diag42_mod.o                   : diag42_mod.f                   CMN_DIAG CMN_SIZE define.h 
diag48_mod.o                   : diag48_mod.f                   CMN_GCTM CMN_O3 CMN_SIZE define.h cmn_fj.h CMN_SIZE define.h jv_cmn.h 
diag49_mod.o                   : diag49_mod.f                   CMN_GCTM CMN_O3 CMN_SIZE define.h cmn_fj.h CMN_SIZE define.h jv_cmn.h 
diag50_mod.o                   : diag50_mod.f                   CMN_GCTM CMN_O3 CMN_SIZE define.h cmn_fj.h CMN_SIZE define.h jv_cmn.h 
diag51_mod.o                   : diag51_mod.f                   CMN_GCTM CMN_O3 CMN_SIZE define.h cmn_fj.h CMN_SIZE define.h jv_cmn.h 
diag56_mod.o                   : diag56_mod.f                   CMN_DIAG CMN_SIZE define.h 
diag_2pm.o                     : diag_2pm.f                     CMN_DIAG CMN_SIZE define.h 
diag_mod.o                     : diag_mod.f                     
diag_oh_mod.o                  : diag_oh_mod.f                  CMN_SIZE define.h comode.h 
diag_pl_mod.o                  : diag_pl_mod.f                  CMN_DIAG CMN_SIZE define.h comode.h 
diagoh.o                       : diagoh.f                       CMN_DIAG CMN_O3 CMN_SIZE define.h 
directory_mod.o                : directory_mod.f                
drydep_mod.o                   : drydep_mod.f                   CMN_DEP CMN_DIAG CMN_GCTM CMN_SIZE define.h CMN_VEL commsoil.h comode.h 
dust_dead_mod.o                : dust_dead_mod.f                CMN_GCTM CMN_SIZE define.h 
dust_mod.o                     : dust_mod.f                     CMN_DIAG CMN_GCTM CMN_SIZE define.h cmn_fj.h CMN_SIZE define.h comode.h jv_cmn.h 
edgar_mod.o                    : edgar_mod.f                    CMN_SIZE define.h 
emep_mod.o                     : emep_mod.f                     CMN_O3 CMN_SIZE define.h 
emf_scale.o                    : emf_scale.f                    CMN_O3 CMN_SIZE define.h comode.h 
emfossil.o                     : emfossil.f                     CMN_DIAG CMN_O3 CMN_SIZE define.h comode.h 
emisop.o                       : emisop.f                       CMN_ISOP CMN_SIZE define.h CMN_VEL 
emisop_grass.o                 : emisop_grass.f                 CMN_ISOP CMN_SIZE define.h CMN_VEL 
emisop_mb.o                    : emisop_mb.f                    CMN_ISOP CMN_SIZE define.h CMN_VEL 
emissdr.o                      : emissdr.f                      CMN CMN_DIAG CMN_MONOT CMN_NOX CMN_O3 CMN_SIZE define.h comode.h 
emissions_mod.o                : emissions_mod.f                CMN_O3 CMN_SIZE define.h 
emmonot.o                      : emmonot.f                      CMN_MONOT CMN_SIZE define.h CMN_VEL 
epa_nei_mod.o                  : epa_nei_mod.f                  CMN_O3 CMN_SIZE define.h 
error_mod.o                    : error_mod.f                    define.h 
fast_j.o                       : fast_j.f                       cmn_fj.h CMN_SIZE define.h jv_cmn.h 
fertadd.o                      : fertadd.f                      CMN_SIZE define.h commsoil.h 
file_mod.o                     : file_mod.f                     define.h 
findmon.o                      : findmon.f                      
fjfunc.o                       : fjfunc.f                       cmn_fj.h CMN_SIZE define.h 
future_emissions_mod.o         : future_emissions_mod.f         CMN_SIZE define.h 
fvdas_convect_mod.o            : fvdas_convect_mod.f            CMN_DIAG CMN_SIZE define.h 
fyrno3.o                       : fyrno3.f                       
gamap_mod.o                    : gamap_mod.f                    CMN_DIAG CMN_SIZE define.h 
gasconc.o                      : gasconc.f                      CMN_SIZE define.h comode.h 
gc_biomass_mod.o               : gc_biomass_mod.f               CMN_SIZE define.h 
gcap_convect_mod.o             : gcap_convect_mod.f             CMN_DIAG CMN_SIZE define.h 
gcap_read_mod.o                : gcap_read_mod.f                CMN_DIAG CMN_GCTM CMN_SIZE define.h 
geia_mod.o                     : geia_mod.f                     CMN_SIZE define.h 
get_global_ch4.o               : get_global_ch4.f               
getifsun.o                     : getifsun.f                     CMN_SIZE define.h comode.h 
gfed2_biomass_mod.o            : gfed2_biomass_mod.f            CMN_SIZE define.h 
global_ch4_mod.o               : global_ch4_mod.f               CMN CMN_DIAG CMN_SIZE define.h 
global_hno3_mod.o              : global_hno3_mod.f              CMN_SIZE define.h 
global_no3_mod.o               : global_no3_mod.f               CMN_SIZE define.h 
global_nox_mod.o               : global_nox_mod.f               CMN_SIZE define.h 
global_o1d_mod.o               : global_o1d_mod.f               CMN_SIZE define.h 
global_o3_mod.o                : global_o3_mod.f                CMN_SIZE define.h 
global_oh_mod.o                : global_oh_mod.f                CMN_SIZE define.h 
grid_mod.o                     : grid_mod.f                     CMN_GCTM CMN_SIZE define.h 
gwet_read_mod.o                : gwet_read_mod.f                CMN_DIAG CMN_SIZE define.h 
h2_hd_mod.o                    : h2_hd_mod.f                    CMN_DEP CMN_DIAG CMN_O3 CMN_SIZE define.h 
hcn_ch3cn_mod.o                : hcn_ch3cn_mod.f                CMN_DEP CMN_DIAG CMN_SIZE define.h 
i6_read_mod.o                  : i6_read_mod.f                  CMN_DIAG CMN_SIZE define.h 
ifort_errmsg.o                 : ifort_errmsg.f                 
initialize.o                   : initialize.f                   CMN_DIAG CMN_SIZE define.h 
inphot.o                       : inphot.f                       cmn_fj.h CMN_SIZE define.h jv_cmn.h 
input_mod.o                    : input_mod.f                    CMN CMN_DIAG CMN_O3 CMN_SIZE define.h define.h 
isoropia_mod.o                 : isoropia_mod.f                 CMN_SIZE define.h isoropia.h 
jsparse.o                      : jsparse.f                      CMN_SIZE define.h comode.h 
julday_mod.o                   : julday_mod.f                   
jv_index.o                     : jv_index.f                     cmn_fj.h CMN_SIZE define.h comode.h 
ksparse.o                      : ksparse.f                      CMN_SIZE define.h comode.h 
lai_mod.o                      : lai_mod.f                      CMN_SIZE define.h 
lightning_nox_mod.o            : lightning_nox_mod.f            CMN_DIAG CMN_GCTM CMN_SIZE define.h define.h 
logical_mod.o                  : logical_mod.f                  
lump.o                         : lump.f                         CMN_SIZE define.h comode.h 
main.o                         : main.f                         CMN_DIAG CMN_GCTM CMN_SIZE define.h 
megan_mod.o                    : megan_mod.f                    CMN_GCTM CMN_SIZE define.h 
mercury_mod.o                  : mercury_mod.f                  CMN_DIAG CMN_GCTM CMN_SIZE define.h 
mmran_16.o                     : mmran_16.f                     cmn_fj.h CMN_SIZE define.h jv_cmn.h 
ndxx_setup.o                   : ndxx_setup.f                   CMN_DIAG CMN_SIZE define.h 
ocean_mercury_mod.o            : ocean_mercury_mod.f            CMN_DEP CMN_SIZE define.h 
ohsave.o                       : ohsave.f                       CMN_SIZE define.h comode.h 
optdepth_mod.o                 : optdepth_mod.f                 CMN_DIAG CMN_SIZE define.h 
partition.o                    : partition.f                    CMN_SIZE define.h comode.h 
pbl_mix_mod.o                  : pbl_mix_mod.f                  CMN_DIAG CMN_GCTM CMN_SIZE define.h 
pderiv.o                       : pderiv.f                       CMN_SIZE define.h comode.h 
photoj.o                       : photoj.f                       cmn_fj.h CMN_SIZE define.h jv_cmn.h 
physproc.o                     : physproc.f                     CMN_SIZE define.h comode.h 
pjc_pfix_geos5_window_mod.o    : pjc_pfix_geos5_window_mod.f    CMN CMN_GCTM CMN_SIZE define.h 
pjc_pfix_mod.o                 : pjc_pfix_mod.f                 CMN CMN_GCTM CMN_SIZE define.h 
planeflight_mod.o              : planeflight_mod.f              CMN_DIAG CMN_SIZE define.h cmn_fj.h CMN_SIZE define.h comode.h jv_cmn.h 
precipfrac.o                   : precipfrac.f                   CMN_SIZE define.h 
pressure_mod.o                 : pressure_mod.f                 CMN_SIZE define.h 
pulsing.o                      : pulsing.f                      CMN_SIZE define.h commsoil.h 
rd_js.o                        : rd_js.f                        cmn_fj.h CMN_SIZE define.h jv_cmn.h 
rd_prof.o                      : rd_prof.f                      cmn_fj.h CMN_SIZE define.h jv_cmn.h 
rdisopt.o                      : rdisopt.f                      CMN_SIZE define.h 
rdlai.o                        : rdlai.f                        CMN_DEP CMN_SIZE define.h CMN_VEL 
rdland.o                       : rdland.f                       CMN_DEP CMN_SIZE define.h CMN_VEL 
rdlight.o                      : rdlight.f                      CMN_ISOP CMN_SIZE define.h 
rdmonot.o                      : rdmonot.f                      CMN_SIZE define.h 
rdsoil.o                       : rdsoil.f                       CMN_SIZE define.h commsoil.h 
readchem.o                     : readchem.f                     CMN_SIZE define.h comode.h 
reader.o                       : reader.f                       CMN_GCTM CMN_SIZE define.h comode.h 
readlai.o                      : readlai.f                      CMN_DEP CMN_SIZE define.h CMN_VEL 
regrid_1x1_mod.o               : regrid_1x1_mod.f               CMN_GCTM CMN_SIZE define.h 
restart_mod.o                  : restart_mod.f                  CMN_SIZE define.h 
rpmares_mod.o                  : rpmares_mod.f                  CMN_SIZE define.h 
ruralbox.o                     : ruralbox.f                     CMN_SIZE define.h comode.h 
scale_anthro_mod.o             : scale_anthro_mod.f             CMN_SIZE define.h 
schem.o                        : schem.f                        CMN_SIZE define.h 
seasalt_mod.o                  : seasalt_mod.f                  CMN_DIAG CMN_GCTM CMN_SIZE define.h 
set_aer.o                      : set_aer.f                      cmn_fj.h CMN_SIZE define.h jv_cmn.h 
set_prof.o                     : set_prof.f                     cmn_fj.h CMN_SIZE define.h jv_cmn.h 
setbase.o                      : setbase.f                      CMN CMN_ISOP CMN_MONOT CMN_SIZE define.h CMN_VEL 
setemdep.o                     : setemdep.f                     CMN_SIZE define.h comode.h 
setemis.o                      : setemis.f                      CMN_DIAG CMN_NOX CMN_SIZE define.h comode.h 
setmodel.o                     : setmodel.f                     CMN_SIZE define.h comode.h 
sfcwindsqr.o                   : sfcwindsqr.f                   CMN_SIZE define.h 
smvgear.o                      : smvgear.f                      CMN_SIZE define.h comode.h 
soilbase.o                     : soilbase.f                     CMN_SIZE define.h commsoil.h 
soilcrf.o                      : soilcrf.f                      CMN_DEP CMN_SIZE define.h commsoil.h 
soilnoxems.o                   : soilnoxems.f                   CMN_DEP CMN_DIAG CMN_NOX CMN_SIZE define.h commsoil.h 
soiltemp.o                     : soiltemp.f                     CMN_SIZE define.h commsoil.h 
soiltype.o                     : soiltype.f                     CMN_SIZE define.h commsoil.h 
streets_anthro_mod.o           : streets_anthro_mod.f           CMN_O3 CMN_SIZE define.h 
subfun.o                       : subfun.f                       CMN_SIZE define.h comode.h 
sulfate_mod.o                  : sulfate_mod.f                  CMN_DIAG CMN_GCTM CMN_O3 CMN_SIZE define.h cmn_fj.h CMN_SIZE define.h 
sunparam.o                     : sunparam.f                     
tagged_co_mod.o                : tagged_co_mod.f                CMN_DIAG CMN_O3 CMN_SIZE define.h 
tagged_ox_mod.o                : tagged_ox_mod.f                CMN_DIAG CMN_GCTM CMN_SIZE define.h 
tcorr.o                        : tcorr.f                        
time_mod.o                     : time_mod.f                     CMN_DIAG CMN_SIZE define.h define.h 
toms_mod.o                     : toms_mod.f                     CMN_SIZE define.h 
tpcore_bc_mod.o                : tpcore_bc_mod.f                CMN CMN_SIZE define.h 
tpcore_fvdas_mod.o             : tpcore_fvdas_mod.f90             CMN_GCTM 
	$(F90) -c -r8 -check nobounds $*.f90
tpcore_geos5_window_mod.o      : tpcore_geos5_window_mod.f90      
	$(F90) -c -r8 -check nobounds $*.f90
tpcore_mod.o                   : tpcore_mod.f                   CMN_DIAG CMN_GCTM CMN_SIZE define.h define.h 
	$(F90) -c -r8 -check nobounds $*.f
tpcore_window_mod.o            : tpcore_window_mod.f            CMN_DIAG CMN_GCTM CMN_SIZE define.h define.h 
	$(F90) -c -r8 -check nobounds $*.f
tracer_mod.o                   : tracer_mod.f                   CMN_SIZE define.h 
tracerid_mod.o                 : tracerid_mod.f                 CMN_SIZE define.h comode.h 
transfer_mod.o                 : transfer_mod.f                 CMN_SIZE define.h 
transport_mod.o                : transport_mod.f                CMN_DIAG CMN_GCTM CMN_SIZE define.h 
tropopause.o                   : tropopause.f                   CMN CMN_DIAG CMN_SIZE define.h 
tropopause_mod.o               : tropopause_mod.f               CMN CMN_SIZE define.h comode.h 
unix_cmds_mod.o                : unix_cmds_mod.f                
upbdflx_mod.o                  : upbdflx_mod.f                  CMN_GCTM CMN_SIZE define.h 
update.o                       : update.f                       CMN_SIZE define.h comode.h 
uvalbedo_mod.o                 : uvalbedo_mod.f                 CMN_SIZE define.h 
vistas_anthro_mod.o            : vistas_anthro_mod.f            CMN_O3 CMN_SIZE define.h 
wetscav_mod.o                  : wetscav_mod.f                  CMN_DIAG CMN_SIZE define.h 
xltmmp.o                       : xltmmp.f                       CMN_SIZE define.h 
xtra_read_mod.o                : xtra_read_mod.f                CMN_DIAG CMN_SIZE define.h 

#=============================================================================
#  Other Makefile Commands
#=============================================================================
clean:
	rm -rf *.o *.mod geos rii_files

.PHONY: clean doc docclean

.SUFFIXES: .f .F .f90 .F90
.f.o:                   ; $(F90) $(Fopt) -c $*.f
.F.o:                   ; $(F90) $(Fopt) -c $*.F
.f90.o:                 ; $(F90) $(Fopt) -c -freeform $*.f90 
.F90.o:                 ; $(F90) $(Fopt) -c -freeform $*.F90 
