REVISIONS (v7-04-02)  
bmy, 20 Apr 2006


New in v7-04-02:
-------------------------------------------------------------------------------

gc_biomass_mod.f	-- Renamed from "biomass_mod.f"

gfed2_biomass_mod.f	-- Module which contains routines for reading the
			   GFED2 biomass burning emissions 

do_regrid_g2g_1x1	-- Regrids from GENERIC 1x1 grid to GEOS-Chem 1x1 grid
("regrid_1x1_mod.f")



Removed in v7-04-02:
-------------------------------------------------------------------------------

chem.f			-- Now moved subroutine calls from this routine
			   into "chemdr.f"

tracerid_mod.f		-- Removed IDBNOX, IDBCO, IDBC2H6, IDBPRPE, IDBACET
                           IDBMEK, IDBC3H8, IDBALD2, IDBCH2O, IDBALK4



Changed from v7-04-01:
-------------------------------------------------------------------------------

biogenic_oc		-- For GCAP, need to use GET_NAME_EXT_2D in NVOC 
("carbon_mod.f")	   file name

chemdr.f		-- Remove more obsolete SLOW-J code references
			-- Also now move function calls from subroutine 
			   "chem.f" into "chemdr.f"
			-- Remove obsolete arguments from call to RURALBOX

cleanup.f		-- Now calls CLEANUP_GC_BIOMASS and 
		           CLEANUP_GFED2_BIOMASS

comode.h		-- Now remove AVG, BOLTG, RGAS, SCDAY, BK, EIGHTDPI, 
			   RSTARG, WTAIR, ONEPI, CONSVAP, SMAL1, SMAL2, SMAL3
			   from common blocks and declare these as parameters

compute_grid		-- Added comments about surface area derivation
("grid_mod.f")

debug_msg		-- Now add a little space for debug output
("error_mod.f")

do_emissions		-- Now call GFED2_COMPUTE_BIOMASS to read 1x1 biomass 
("emissions_mod.f")	   emissions and regrid to the model resolution once 
			   per month

emissc2h6		-- Now modified for new "biomass_mod.f"
("c2h6_mod.f")

emissch3i		-- Now modified for new "biomass_mod.f"
("ch3i_mod.f")

emiss_hcn_ch3cn		-- Now modified for new "biomass_mod.f"
("hcn_ch3cn_mod.f")

emiss_tagged_co		-- Now modified for new "biomass_mod.f"
("tagged_co_mod.f")

gc_compute_biomass	-- This was originally BIOBURN in "biomass_mod.f"
("gc_biomass_mod.f")

init_drydep		-- Bug fix: split up compound IF statements into 
("drydep_mod.f")           separate 2 IF statements for ID_Hg2, ID_HgP to 
			   avoid seg faults

init_input		-- Now also initialize LEMEP, LGFED2BB switches
("input_mod.f")

logical_mod.f		-- Added LGFED2BB switch for GFED2 BIOMASS BURNING

ndxx_setup.f		-- Now remove NBIOTRCE; it's obsolete.  
			   Replace w/ NBIOMAX

read_biomass		-- Now make BIOMASS array argument (I,J,N) ordered 
("biomass_mod.f")	   instead of (N,I,J)
			-- Also now read all NBIOMAX species

read_diagnostic_menu	-- Now remove reference to NBIOTRCE; Replace w/ NBIOMAX
("input_mod.f")

read_emissions_menu	-- Now read LGFED2BB -- switch for GFED2 biomass 
("input_mod.f")		   emissions and DATA_DIR_1x1 directory

reader.f		-- Physical constants and some error tolerances are 
			   now defined as parameters in "comode.h".  In this 
			   way, their values will be defined before the first 
			   call to READER for the offline aerosol simulation 

read_tracer_menu        -- Now do not call SET_BIOTRCE anymore; it's obsolete
("input_mod.f")

ruralbox.f		-- Remove ALT and CLOUDS from arg list,
			   they are obsolete

seasalt_chem		-- Bug fix: now avoid seg fault error if IDTHNO3 is 
("sulfate_mod.f")	   zero, as it would be for an offline aerosol sim

setemis.f		-- Now updated for new "biomass_mod.f"

tracerid		-- Now remove IDBxxx biomass flags
("tracerid_mod.f")
