REVISIONS (v8-02-04)
27 Oct 2009
Bob Yantosca, Philippe Le Sager, and Claire Carouge
geos-chem-support@as.harvard.edu


New in v8-02-04:
================================================================================

In the GeosCore subdirectory:
-----------------------------

linoz_mod.f		-- Module containing routines for the Linoz
	 		   stratospheric chemistry algorithm


Removed in v8-02-04:
================================================================================



Modified in v8-02-04:
================================================================================

Input files for GEOS-Chem:
--------------------------

ratj.d     		-- Updated the branching ratio of HNO4.  
			   Changed the lines:
			      Line 13 HNO4 from 33.3 to 5.0
			      Line 14 HNO4 from 66.7 to 95.0
			   This is based on Jimenez et al, "Quantum yields 
			   of OH, HO2 and NO3 in the UV photolysis of HO2NO2" 
			   (jmao, bmy, 10/27/09)


In the Headers subdirectory:
----------------------------

define.h		-- Removed references to IN_CLOUD_OD
			-- Added ProTeX headers


In the GeosCore subdirectory:
-----------------------------

calcrate.f		-- FastJX has taken near-IR photolysis into account 
                           with cross section at 574nm, so we don't need to 
	                   manually add 1e-5 to the JHNO4 rate anymore.

chem_dms		-- Update reaction rate to match JPL06 and full chem
("sulfate_mod.f")

chem_so2		-- Update reaction rate to match JPL06 and full chem
("sulfate_mod.f")

chem_tagged_ox		-- Now only compute loss rate in troposphere 
("tagged_ox_mod.f")

cleanup.f		-- Now references CLEANUP_LINOZ

cleanup_sulfate		-- Deleted obsolete arrays from older SO2 volcanic
("sulfate_mod.f")          emissions inventory

diag20			-- Bug fix: Now just zero arrays w/o loop indices
("diag_pl_mod.f")

emisssulfate		-- Now read new volcanic SO2 emissions daily
("sulfate_mod.f")

fast_j.f 		-- Removed references to IN_CLOUD_OD		

init_drydep		-- Minor bug fix: ALPH, LIMO should have 
("drydep_mod.f")           molwt = 136.23, not 136 even

init_input		-- Now initialize LLINOZ
("input_mod.f")

init_sulfate		-- Now redimension EEV & NEV arrays for new SO2 
("sulfate_mod.f")          volcanic emissions inventory
			-- Deleted obsolete arrays from older SO2 volcanic
                           emissions inventory

main.f			-- Now calls LINOZ_READ at startup

open_a6_fields		-- Removed references to IN_CLOUD_OD
("a6_read_mod.f")

read_a3			-- Removed references to IN_CLOUD_OD
("a3_read_mod.f")

read_a6			-- Removed references to IN_CLOUD_OD
("a6_read_mod.f")

read_i6			-- Removed references to IN_CLOUD_OD
("i6_read_mod.f")

read_emissions_menu	-- Bug fix: for now, if LEMEPSHIP is turned on but 
("input_mod.f")            LEMEP is turned off, just turn off LEMEPSHIP and 
                           print a warning msg

read_erup_volc		-- Complete re-write as volcanic emissions are now 
("sulfate_mod.f")          monthly and stored as BPCH files

read_nonerup_volc	-- Complete re-write as volcanic emissions are now 
("sulfate_mod.f")          monthly and stored as BPCH files

read_simulation_menu	-- Now read LLINOZ switch from input.geos file
("input_mod.f")

srcso2			-- Changed processing of volcanic SO2 emissions
("sulfate_mod.f")

sulfate_mod.f		-- Removed obsolete arrays from old volcanic emissions
			-- Commented out LEEV and LENV flags

tagged_ox_mod.f		-- Various updates for Linoz

upbdflx_mod.f		-- Various updates for Linoz


Removed obsolete, commented out code from the following routines:
================================================================================
calcrate.f
carbon_mod.f
diag3.f
diag42_mod.f
diag48_mod.f
diag49_mod.f
diag51_mod.f
emfossil.f
emissdr.f
error_mod.f
gamap_mod.f
gc_biomass_mod.f
geia_mod.f
global_ch4_mod.f
h2_hd_mod.f
input_mod.f
lightning_nox_mod.f
main.f
ocean_mercury_mod.f
planeflight_mod.f
regrid_1x1_mod.f
setemis.f
streets_anthro_mod.f
toms_mod.f
tpcore_geos5_window_mod.f90
tropopause_mod.f
tracerid_mod.f
upbdflx_mod.f
wetscav_mod.f


