REVISIONS (v8-01-03)  
10 Dec 2008
Bob Yantosca, Philippe Le Sager, and Claire Carouge
geos-chem-support@as.harvard.edu


New in v8-01-03:
-------------------------------------------------------------------------------

tpcore_fvdas_mod.f90	-- New TPCORE routines based on GMI, as implemented
                           by Claire Carouge and parallelized by Bob Yantosca.
			   This version fixes the polar overshooting.
			-- Added ProTeX documentation headers
	                -- Cosmetic changes


Removed in v8-01-03:
-------------------------------------------------------------------------------

tpcore_fvdas_mod.f90	-- Old TPCORE routines from S-J Lin & Kevin Yeh.
			   This code is now removed from GEOS-Chem.



Changed in v8-01-03:
-------------------------------------------------------------------------------

pjc_pfix_mod.f		-- Modified for the new tpcore_fvdas_mod.f90 
                           (based on GMI)
			-- Added ProTeX documentation headers
			-- Cosmetic changes

get_local_time		-- Bug fix: LT should be REAL*8 and not INTEGER
("diag51_mod.f")
