REVISIONS (v7-01-01)  
bmy, 22 Sep 2004


New in v7-01-01:
-------------------------------------------------------------------------------

aerosol_mod.f		-- Contains routines for computing aerosol optical
			   depth and other quantities for photolysis

benchmark_mod.f		-- Contains STDRUN routine, formerly in "main.f",
			   which saves initial & final tracer mass to disk
			   for GEOS-CHEM benchmark output

diag_oh_mod.f		-- Contains routines & variables for ND23 diagnostic
	                   (Mean OH or CHC3CCl3 lifetime)

diag_pl_mod.f		-- Contains routines & variables for ND65 & ND20 diag's

diag49_mod.f		-- Module for ND49 instantaneous timeseries

diag50_mod.f		-- Module for ND50 24-hr average timeseries

directory_mod.f		-- Module containing GEOS-CHEM directories

get_ndiagtime		-- Added this routine to "time_mod.f"
("time_mod.f")

its_a_new_season	-- Added this routine to "time_mod.f"
("time_mod.f")

input_mod.f		-- Routine to read new "input.geos" file

isdigit			-- Added this routine to "charpak_mod.f"
("charpak_mod.f")

logical_mod.f		-- Module containing all GEOS-CHEM logical switches

setemdep.f		-- Now flag to "smv2.log" the emitted & dry-deposited 
			   tracers instead  of flagging the tracers which 
			   aren't emitted or dry-deposited.

set_ndiagtime		-- Added this routine to "time_mod.f"
("time_mod.f")

set_transport		-- Added to pass IORD, JORD, KORD values from
("transport_mod.f")  	   "input_mod.f" to "transport_mod.f"

init_upbdflx		-- Added to pass IORD, JORD, KORD values from
("transport_mod.f")  	   "input_mod.f" to "transport_mod.f"

tracer_mod.f		-- Module containing GEOS-CHEM tracer array 
			   and related quantities

unix_cmds_mod.f		-- Module containing Unix cmds for unzipping


Removed in v7-01-01:
-------------------------------------------------------------------------------

CMN_SETUP		-- Now replaced by "logical_mod.f" and 
			   "directory_mod.f"

diffuse.f		-- This was part of the old obsolete KZZ routine.  
			   It is no longer used so delete it.

diag20.f		-- Now bundled into "diag_pl_mod.f"

diag48.f		-- Now replaced by "diag48_mod.f"

diag49.f		-- Now replaced by "diag49_mod.f"

diag5.f			-- Now replaced by "diag48_mod.f"

diag50.f		-- Now replaced by "diag50_mod.f"

diagpl.f		-- Now replaced by into "diag_pl_mod.f"

flashes.f		-- Now bundled into "lightning_nox_mod.f"

inptr.f			-- Now replaced by "input_mod.f"

input.f			-- Now replaced by "input_mod.f"

plsave.f	        -- Now bundled into "diag_pl_mod.f"

rdaer.f			-- Now bundled into "aerosol_mod.f"

read49.f		-- Now replaced by "input_mod.f"

setjfam.f		-- Now bundled into "diag_pl_mod.f"

setpl.f			-- Now bundled into "diag_pl_mod.f

setup.f			-- Now replaced by "input_mod.f"

o3comp.f		-- This was just historical baggage.  You can
			   replace the call w/ a reference to FRACO3(I,J,L)
			   or FRACNO(I,J,L) from "CMN_O3"

TRBDIF.f		-- This was part of the old obsolete KZZ routine.  
			   It is no longer used so delete it.

VTRI0.f			-- This was part of the old obsolete KZZ routine.  
			   It is no longer used so delete it.

write20.f		-- Now bundled into "diag_pl_mod.f"


Changed from v6-02-05:
-------------------------------------------------------------------------------

add_strat_pox		-- Now references STT from "tracer_mod.f"
("tagged_ox_mod.f")

anthro_carb_tbond	-- Now references DATA_DIR from "directory_mod.f"
("carbon_mod.f")

anthro_carb_cooke	-- Now references DATA_DIR from "directory_mod.f"
("carbon_mod.f")

biofuel_burn		-- Now references "tracer_mod.f" and "directory_mod.f"
("biofuel_mod.f")

biomass_carb_cooke	-- Now references DATA_DIR from "directory_mod.f"
("carbon_mod.f")

biomass_carb_geos	-- Now references DATA_DIR from "directory_mod.f"
("carbon_mod.f")	-- Also removed CMN, it's obsolete

biogenic_oc		-- Now references DATA_DIR from "directory_mod.f" 
("carbon_mod.f")	-- Now references LSOA from "logical_mod.f"

ch4_avgtp		-- Remove reference to CMN, it's not needed
("global_ch4_mod.f")

ch4_budget		-- Now references STT from "tracer_mod.f"
("global_ch4_mod.f")

ch4_decay		-- Now references STT from "tracer_mod.f"
("global_ch4_mod.f")

ch4_ohsave		-- Now references DO_DIAG_OH_CH4 from "diag_oh_mod.f"
("global_ch4_mod.f")

ch4_strat		-- Now references STT from "tracer_mod.f"
("global_ch4_mod.f")

chem_bcpo		-- Remove reference to "CMN", it's obsolete
("carbon_mod.f")

chem_bcpi		-- Remove reference to "CMN", it's obsolete
("carbon_mod.f")

chemc2h6		-- Now reference STT & N_TRACERS from "tracer_mod.f"  
("c2h6_mod.f")		-- Now reference LSPLIT from "logical_mod.f" 

chemch4			-- Now reference DATA_DIR from "directory_mod.f"
("global_ch4_mod.f")

chemcarbon		-- Now reference LSOA, LEMIS, LPRT from "logical_mod.f"
("carbon_mod.f")	-- Now reference STT and ITS_AN_AEROSOL_SIM 
		           from "tracer_mod.f"

chemch3i		-- Now reference STT and N_TRACERS from "ch3i_mod.f"
("ch3i_mod.f")		-- Also replace NSKIPL-1 with LLTROP for now
			-- Now references AD65 from "diag_pl_mod.f"

chem_dms		-- Now reference STT and ITS_A_FULLCHEM_SIM 
("sulfate_mod.f")	   from "tracer_mod.f" 
			-- Now replace IJSURF w/ an analytic function

chemdr.f		-- Now reference "logical_mod.f"
			-- Now reference STT and N_TRACERS from "tracer_mod.f"
			-- Now remove NTRACE from call to SETTRACE
			-- Now references DO_DIAG_PL from "diag_pl_mod.f"
			-- Now references AEROSOL_CONC, RDAER, & SOILDUST 
			   from "aerosol_mod.f"

chemdust		-- Now references STT from "tracer_mod.f"
("dust_mod.f")		-- Now references LDUST from "logical_mod.f"

chem_h2o2		-- Now reference STT & TCVV from "tracer_mod.f"
("sulfate_mod.f")	-- Now replace IJSURF w/ an analytic function

chemhcn.f		-- Now references N_TRACERS & STT from "tracer_mod.f"

chemKr85		-- Now references STT from "tracer_mod.f"
("Kr85_mod.f")

chem_msa		-- Now references STT & TCVV rom "tracer_mod.f"
("sulfate_mod.f")

chem_nh3		-- Now reference STT & TCVV from "tracer_mod.f"
("sulfate_mod.f")	-- Also remove reference to CMN, it's not needed

chem_nh4		-- Now reference STT & TCVV from "tracer_mod.f"
("sulfate_mod.f")	-- Also remove reference to CMN, it's not needed

chem_nit		-- Now reference STT & TCVV from "tracer_mod.f"
("sulfate_mod.f")	-- Also remove reference to CMN, it's not needed

chem_nvoc		-- Now references STT from "tracer_mod.f"
("carbon_mod.f")	

chem_ocpo		-- Remove reference to "CMN", it's obsolete
("carbon_mod.f")

chem_ocpi		-- Remove reference to "CMN", it's obsolete
("carbon_mod.f")

chemRnPbBe		-- Now references STT & N_TRACERS from "tracer_mod.f" 
("RnPbBe_mod.f")

chemseasalt		-- Now reference STT from "tracer_mod.f".  
("seasalt_mod.f")	-- Now references LPRT from "logical_mod.f"

chem_so2		-- Now reference STT, TCVV,  & ITS_AN_AEROSOL_SIM 
("sulfate_mod.f")	   from "tracer_mod.f"
			-- Now reference DATA_DIR from "directory_mod.f"
			-- Also replace IJSURF with an analytic function.
		

chem_so4		-- Now reference STT & TCVV from "tracer_mod.f"
("sulfate_mod.f")

chemsulfate		-- Now reference STT, TCVV, N_TRACERS, 
("sulfate_mod.f")	   ITS_AN_AEROSOL_SIM from "tracer_mod.f"
			-- Now reference ITS_A_NEW_MONTH from "time_mod.f"
			-- Now references LPRT from "logical_mod.f"

chem_tagged_co		-- Now reference STT & N_TRACERS from "tracer_mod.f"
("tagged_co_mod.f")	-- Now references LSPLIT from "logical_mod.f"
			-- Now references AD65 from "diag_pl_mod.f"
			-- Updated comments

chem_tagged_ox		-- Now references LDRYD from "logical_mod.f"  
("tagged_ox_mod.f")	-- Now references STT & N_TRACERS from "tracer_mod.f"
			-- Now references AD65 from "diag_pl_mod.f"
			-- Now uses ITS_A_NEW_DAY from "time_mod.f" 

clean_window_tpcore_bc	-- Now references N_TRACERS from "tracer_mod.f"
("tpcore_bc_mod.f")     

cleanup.f		-- Now references cleanup routines from new modules

cleanup_sulfate		-- Now remove IJSURF 
("sulfate_mod.f")

cleanup_tagged_co	-- Now remove IJLOOP_CO
("tagged_co_mod")

climatol_oh		-- Now references DATA_DIR from "directory_mod.f"
("global_ch4_mod.f")	-- Also call routine GET_SEASON from "time_mod.f"

close_files		-- Renumbered the order of the files.
("file_mod.f")		-- Also removed IU_INPTR and IU_INPUT since they 
			   are now obsolete.
			-- Also renamed IU_TS to IU_ND48 

CMN			-- Remove obsolete variables

CMN_SIZE		-- Changed MAXFAM to 40 (for backwards compatibility

compute_f		-- Remove reference to CMN, it's not needed
("wetscav_mod.f")

compute_grid		-- Suppress some output lines
("grid_mod.f")

convert_units		-- Renamed NTRACE to N_TRACERS for consistency
("dao_mod.f")

copy_stt		-- Now references N_TRACERS, STT and TCVV 
("tracer_mod.f") 	   from "tracer_mod.f"

CO_strat_pl.f		-- Now references STT from "tracer_mod.f"

diag1.f			-- Now references N_TRACERS, STT, and 
			   ITS_A_FULLCHEM_SIM from "tracer_mod.f"

diag_2pm.f		-- Now rewritten using a parallel DO-loop

diag3.f			-- Now references "logical_mod.f"
			-- Now references "tracer_mod.f"
			-- Now references "diag_pl_mod.f"
			-- Bug fix in write to DMS_BIOG

diag48.f		-- Now references STT, TCVV, ITS_A_FULLCHEM_SIM,
			   ITS_A_HCN_SIM, and TRACER_MW_G from "tracer_mod.f"
			-- Removed references to O3COMP

diag51			-- Removed reference to CMN
("diag51_mod.f")

diag_flux		-- Now references TCVV and ITS_A_CH4_SIM from 
("tpcore_mod.f")	   "tracer_mod.f" 

diag_flux		-- Now references TCVV and ITS_A_CH4_SIM from 
("tpcore_window_mod.f")	   "tracer_mod.f" 

diag_mod.f		-- Moved AD65 to "diag65_mod.f"
			-- Removed FAMPL, it's not needed

do_chemistry		-- Now references "logical_mod.f"
("chemistry_mod.f")	-- Now references "tracer_mod.f"
			-- Now includes "CMN_DIAG" and "comode.h".  
			-- Also call READER, READCHEM, and INPHOT to 
			   initialize the FAST-J arrays so that we can save 
			   out AOD's to the ND21 diagnostic for offline runs

do_convection		-- Now references LPRT from "logical_mod.f".  
("convection_mod.f")	-- Now references N_TRACERS, STT, and TCVV 
			   from "tracer_mod.f" 

do_drydep		-- Now references DATA_DIR from "directory_mod.f"
("drydep_mod.f")	-- Now reference LPRT from "logical_mod.f"

do_emissions		-- Now use inquiry functions from "tracer_mod.f".  
("emissions_mod.f")	-- Now references "logical_mod.f" 

do_global_transport	-- Removed IORD, JORD, KORD from the arg list, 
("transport_mod.f")	   since these are now module variables.  
			-- Now get LEMBED, LFILL, LMFCT, LPRT, LWINDO from 
			   "logical_mod.f".  
			-- Now references STT, N_TRACERS, TCVV from 
			   "tracer_mod.f".  
			-- Now parallelized embedded chemistry BC's.  

do_rpmares		-- Now reference STT, ITS_A_FULLCHEM_SIM, and 
("rpmares_mod.f")	   ITS_AN_AEROSOL_SIM from "tracer_mod.f" 
			--  Now references ITS_A_NEW_MONTH from "time_mod.f"

do_transport		-- Removed IORD, JORD, KORD from the arg list.  
("transport_mod.f")	-- Also now removed reference to CMN, it's not needed.

do_upbdflx		-- Removed IORD, JORD, KORD from the arg list.  
("upbdflx_mod.f")	-- Now references LPRT from "logical_mod.f". 
			-- Now references ITS_A_FULLCHEM_SIM and
			   ITS_A_TAGOX_SIM from "tracer_mod.f"

do_wetdep		-- Now references LPRT from "logical_mod.f"
("wetscav_mod.f")

do_window_tpcore_bc	-- Now references N_TRACERS & STT from "tracer_mod.f"
("tpcore_bc_mod.f")

do_window_transport	-- Removed IORD, JORD, KORD from the arg list, 
("transport_mod.f")	   since these are now module variables.  
			-- Now reference LFILL, LMFCT, LPRT from 
			   "logical_mod.f".  
			-- Now reference STT, N_TRACERS from "tracer_mod.f"
	

dryflxRnPbBe		-- Now reference STT from "tracer_mod.f"
("drydep_mod.f")	-- Now reference LDRYD from "logical_mod.f"

dry_settling		-- Remove reference to CMN, it's not needed
("dust_mod.f")

dvz_minval		-- Remove reference to CMN, it's obsolete
("drydep_mod.f")

dyn0			-- Removed reference to CMN 
("tpcore_mod.f")

dyn0			-- Removed reference to CMN 
("tpcore_window_mod.f")

emf_scale.f		-- Now references LFFNOX from "logical_mod.f"

emissc2h6		-- Now replace CMN_SETUP w/ references from 
("c2h6_mod.f")		   "logical_mod.f" and "directory_mod.f".  
			-- Now references STT from "tracer_mod.f".
			-- Replace LFOSSIL with LANTHRO

emisscarbon		-- Now references LSOA & LPRT from "logical_mod.f"
("carbon_mod.f")	-- Now references STT from "tracer_mod.f"

emissch3i		-- Now references STT & N_TRACERS from "tracer_mod.f"
("ch3i_mod.f")		-- Now reference LEMIS from "logical_mod.f"

emissch4		-- Now reference STT from "tracer_mod.f"
("global_ch4_mod.f")	-- Now reference DATA_DIR from "directory_mod.f"

emissdr.f		-- Now references "logical_mod.f"
			-- Replaced LFOSSIL with LANTHRO

emissdust		-- Now reference LDEAD, LDUST, LPRT from 
("dust_mod.f")             "logical_mod.f"
			-- Now reference STT from "tracer_mod.f"

emisshcn.f		-- Now references STT from "tracer_mod.f"   
			-- Now references LEMIS from "logical_mod.f"

emissKr85		-- Now references STT from "tracer_mod.f"
("Kr85_mod.f")

emissRnPbBe		-- Now reference LEMIS from "logical_mod.f"
("RnPbBe_mod.f")	-- Now reference STT and N_TRACERS from "tracer_mod.f"

emissseasalt		-- Now references LPRT from "logical_mod.f"
("seasalt_mod.f")	-- Now references STT from "tracer_mod.f"

emisssulfate		-- Now references STT and ITS_AN_AEROSOL_SIM 
("sulfate_mod.f")	   from "tracer_mod.f".  
			-- Now references LSHIPSO2 from "logical_mod.f"

emiss_tagged_co		-- Now reference LSPLIT, LANTHRO, LBIOMASS, LBIOFUEL 
("tagged_co_mod.f")	   from "logical_mod.f".  
			-- Now reference STT from "tracer_mod.f".
			-- Now replace IJLOOP_CO w/ an analytic function

emithigh		-- Now reference STT from "tracer_mod.f"
("carbon_mod.f")	

error_mod.f		-- Move CHECK_STT routine to "tracer_mod.f", in
			   order to avoid a circular reference

expand_date		-- Now do not replace "ss" with seconds, as the 
("time_mod.f") 		   smallest GEOS-CHEM timestep is in minutes.

file_mod.f		-- Renumbered the order of the files.
			-- Also removed IU_INPTR and IU_INPUT since they 
			   are now obsolete.
			-- Also renamed IU_TS to IU_ND48 

fvdas_convect		-- Handle parallel loops differently for Intel Fortran
("fvdas_convect_mod.f")	   Compilers, since for some reason the code dies if
			   large arrays (QTMP, FTMP) are held PRIVATE in 
			   parallel loops.

gasconc.f		-- Now dimension args XNUMOL, STT w/ NTRACER 
			   and not NNPAR

get_alpha_isop		-- Updated comments	
("tagged_co_mod.f")

get_global_hno3		-- Now references DATA_DIR from "directory_mod.f"
("global_hno3_mod.f")

get_global_no3		-- Now references DATA_DIR from "directory_mod.f"
("global_no3_mod.f")

get_global_nox		-- Now references TEMP_DIR and DATA_DIR from 
("global_nox_mod.f")	   "directory_mod.f"
			-- Also references Unix unzipping commands 
			   from "unix_cmds_mod.f".

get_global_o3		-- Now use DATA_DIR from "directory_mod.f"
("global_oh_mod.f")

get_global_oh		-- Now use OH_DIR from "directory_mod.f"
("global_oh_mod.f")

get_hno3_ugm3		-- Now references TCVV from "tracer_mod.f"
("global_hno3_mod.f")

get_isol		-- Now references N_TRACERS from "tracer_mod.f"
("wetscav_mod.f")

get_local_time		-- Removed reference to CMN 
("diag51_mod.f")

get_monthly_data	-- Now reference DATA_DIR from "directory_mod.f"
("dust_dead_mod.f")

get_no3			-- Now reference inquiry functions from "tracer_mod.f"
("carbon_mod.f")	-- Remove reference to CMN, it's not needed

get_no3			-- Now reference inquiry functions from "tracer_mod.f"
("sulfate_mod.f")	-- Remove reference to CMN, it's not needed
			-- Also replace IJSURF w/ an analytic function.

get_o3			-- Now reference inquiry functions from "tracer_mod.f"
("carbon_mod.f")

get_o3			-- Now reference inquiry functions from "tracer_mod.f"
("sulfate_mod.f")

get_oh			-- Now reference inquiry functions from "tracer_mod.f"
("carbon_mod.f")	-- Remove reference to CMN, it's not needed

get_oh			-- Now reference inquiry functions from "tracer_mod.f"
("sulfate_mod.f")	-- Remove reference to CMN, it's not needed
			-- Also replace IJSURF w/ an analytic function.

get_pco_lco_strat	-- Removed reference to CMN, it's not needed
("tagged_co_mod")

get_rainfrac		-- This is now a module procedure rather than
("wetscav_mod.f")	   an internal procedure to RAINOUT
			-- Also now pass all arguments explicitly

get_time_invariant_data	-- Now reference DATA_DIR from "directory_mod.f"
("dust_dead_mod.f")

get_wetdep_nmax		-- Now references ITS_A_FULLCHEM_SIM, 
("wetscav_mod.f")	   ITS_AN_AEROSOL_SIM, and ITS_A_RnPbBe_SIM 
			   from "tracer_mod.f"
			-- Now references LCARB, LDUST, LSOA, LSSALT, 
			   LSULF from "logical_mod.f"

init_biofuel		-- Replace LWOODCO w/ LBIOFUEL from "logical_mod.f"
("biofuel_mod.f")

init_biomass		-- Now references LBIOMASS from "logical_mod.f"
("biomass_mod.f")

init_carbon		-- Remove reference to CMN, it's obsolete 
("carbon_mod.f")

init_dao		-- Now reference inquiry functions from "tracer_mod.f"
("dao_mod.f")		-- Now reference LWETD, LDRYD, LCHEM from 
                           "logical_mod.f"
			-- Now allocate RH regardless of simulation.

init_drydep		-- Now references LDRYD from "logical_mod.f"
("drydep_mod.f")	-- Now references N_TRACERS, SALA_REDGE_um, and
			   SALC_REDGE_um from "tracer_mod.f"

init_dust		-- Now references LDEAD from "logical_mod.f"
("dust_mod.f")

initialize.f		-- Now references AD65 & FAM_PLfrom "diag_pl_mod.f"
			-- Now remove reference to DIAGCHLORO, it's obsolete

init_lightning_nox	-- Now reference DATA_DIR from "directory_mod.f"
("lightning_nox_mod.f")

init_sulfate		-- Now remove IJSURF 
("sulfate_mod.f") 	-- Now allocates ITS_AN_AEROSOL_SIM from 
		           "tracer_mod.f"

init_tagged_co		-- Now remove IJLOOP_CO
("tagged_co_mod.f")

init_tagged_ox		-- Now reference N_TRACERS from "tracer_mod.f"
("tagged_ox_mod.f")

init_tpcore_bc		-- Now references N_TRACERS from "tracer_mod.f"
("tpcore_bc_mod.f")	-- Now references LWINDO from "logical_mod.f"
			-- Now references TPBC_DIR from "directory_mod.f".
			-- Now references ITS_A_NESTED_GRID from "grid_mod.f"
			-- Added arguments to take values from "input_mod.f"

init_transport		-- Now references LEMBED & LTPFV from "logical_mod.f"
("tagged_co_mod.f")	-- Now references N_TRACERS from "tracer_mod.f"

init_wetscav		-- Now references STT from "tracer_mod.f"
("wetscav_mod.f")	-- Also now we call WETDEPID from "input_mod.f"

its_time_for_bpch	-- Now return FALSE if it's the first timestep
("main.f")		-- Now calls GET_NDIAGTIME from "time_mod.f"

jvaluein.f		-- Now reference DATA_DIR from "directory_mod.f"

lightdist		-- Now reference DATA_DIR from "directory_mod.f"
("lightning_nox_mod.f")

lump.f			-- Now dimension args XNUMOL, STT w/ NTRACER 
			   and not NNPAR

main.f			-- Now references "directory_mod.f"
			-- Now references "logical_mod.f"
			-- Now references "tracer_mod.f"
			-- Now moved PRINT_MEAN_OH to "diag_oh_mod.f"
			-- Removed internal routine STDRUN

make_qq			-- Added parallel loop
("wetscav_mod.f")

make_restart_file	-- Now reference STT, N_TRACERS, TCVV 
("restart_mod.f")	   from "tracer_mod.f".  
			-- Also now remove hardwired output restart filename. 
			-- Now references LPRT from "logical_mod.f"

metero			-- Now use explicit formula for IJLOOP to allow 
("drydep_mod.f")           parallelization

modin			-- Now references DATA_DIR from "directory_mod.f"
("drydep_mod.f")

ndxx_setup.f		-- Now references "tracer_mod.f" and "logical_mod.f" 
			   instead of "CMN" and "CMN_SETUP"
			-- Now replace LCONVM with LLPAR
			-- Removed reference to PL24H, it's in "diag_pl_mod.f"
			-- Removed AD65 & FAMPL, they're now in "diag_pl_mod.f"
			-- Now references INIT_DIAG_OH from "diag_oh_mod.f"
			-- Adjust TRCOFFSET for various aerosol simulations

ohsave.f		-- Now compute quantities for mean OH (ND23 diag) in 
			   "diag_oh_mod.f" instead of "ohsave.f"
			-- Added N_TRACERS to the arg list
			-- Now dimension args XNUMOL, STT w/ N_TRACERS 
			   and not NNPAR

open_a3_fields		-- Now references "directory_mod.f" instead of 
("a3_read_mod.f")          CMN_SETUP
			-- Also now references LUNZIP from "logical_mod.f"
			-- Also now prevents EXPAND_DATE from overwriting 
			   Y/M/D tokens in directory paths.

open_a6_fields		-- Now references "directory_mod.f" instead of 
("a6_read_mod.f")          CMN_SETUP
			-- Also now references LUNZIP from "logical_mod.f"
			-- Also now prevents EXPAND_DATE from overwriting 
			   Y/M/D tokens in directory paths.

open_bc_file		-- Now use ITS_A_NEW_DAY from "time_mod.f"
("tpcore_bc_mod.f")	-- Now references TPBC_DIR from "directory_mod.f"

open_gwet_fields	-- Now references "directory_mod.f" instead of 
("gwet_read_mod.f")        CMN_SETUP
			-- Also now references LUNZIP from "logical_mod.f"
			-- Also now prevents EXPAND_DATE from overwriting 
			   Y/M/D tokens in directory paths.

open_i6_fields		-- Now references "directory_mod.f" instead of 
("i6_read_mod.f")          CMN_SETUP
			-- Also now references LUNZIP from "logical_mod.f"
			-- Also now prevents EXPAND_DATE from overwriting 
			   Y/M/D tokens in directory paths.

open_ch3i_files		-- Now references DATA_DIR from "directory_mod.f"
("ch3i_mod.f")

partition.f		-- Now dimension args XNUMOL, STT w/ NTRACER 
			   and not NNPAR

planeflight		-- Now references STT & TCVV from "tracer_mod.f"
("planeflight_mod.f")

rainout			-- Now move internal routines GET_RAINFRAC to the 
("wetscav_mod.f")	   module and pass all arguments explicitly.  This 
			   facilitates parallelization on the Altix platform.

rdaer.f			-- Now references DATA_DIR from "directory_mod.f"
			-- Now references LSULF, LCARB, LSSALT from 
			   "logical_mod.f"
			-- Added minor bug fix for conducting the appropriate
			   scaling for optical depth for ND21 diagnostic.
			-- Now make MONTH and YEAR optional arguments  
			-- Now bundled into "aerosol_mod.f"

read_COPminusL.f	-- Now references DATA_DIR from "directory_mod.f"

rddrycf			-- Now references DATA_DIR from "directory_mod.f"
("drydep_mod.f")

rdisopt.f		-- Now references DATA_DIR from "directory_mod.f"

rdland.f		-- Now references DATA_DIR from "directory_mod.f"

rdlight.f		-- Now references DATA_DIR from "directory_mod.f"

rdmonot.f		-- Now references DATA_DIR from "directory_mod.f"

rdsoil.f		-- Now references DATA_DIR from "directory_mod.f"


rdust_offline		-- Now references DATA_DIR from "directory_mod.f"
("dust_mod.f")		-- Now parallelize over the L-dimension for ND21 diag

rdust_online		-- Now references DATA_DIR from "directory_mod.f"
("dust_mod.f")		-- Now parallelize over the L-dimension for ND21 diag

read_7Be		-- Now reference DATA_DIR from "directory_mod.f"
("RnPbBe_mod.f")

readair			-- Removed reference to CMN, it's obsolete
("aircraft_nox_mod.f")	-- Now references DATA_DIR from "directory_mod.f"

read_acetone		-- Now references DATA_DIR from "directory_mod.f"
("tagged_co_mod.f")

read_aircraft_so2	-- Now references DATA_DIR from "directory_mod.f"
("sulfate_mod.f")

read_anthro_sox		-- Now references DATA_DIR from "directory_mod.f".  
("sulfate_mod.f")	-- Also removed reference to CMN, it's not needed.

read_anthro_nh3		-- Now references DATA_DIR from "directory_mod.f".  
("sulfate_mod.f")	

read_biomass_so2	-- Now references DATA_DIR from "directory_mod.f".  
("sulfate_mod.f")	-- Also removed reference to CMN & CMN_SETUP

read_biomass_nh3	-- Now references DATA_DIR from "directory_mod.f".  
("sulfate_mod.f")	-- Now references LBBSEA from "logical_mod.f"
			-- Removed references to CMN and CMN_SETUP

read_c3h8_c2h6_ngas 	-- Now references DATA_DIR from "directory_mod.f"
("geia_mod.f")

readchem.f		-- Now references SETJFAM & SETPL from "diag_pl_mod.f" 

read_coprod		-- Now references DATA_DIR from "directory_mod.f"
("global_ch4_mod.f")

read_erup_volc	        -- Now references DATA_DIR from "directory_mod.f"
("sulfate_mod.f")

read_geia_ascii		-- Now references DATA_DIR from "directory_mod.f"
("acetone_mod.f")

read_geia		-- Now references DATA_DIR from "directory_mod.f"
("acetone_mod.f")

read_jo1d		-- Now references DATA_DIR from "directory_mod.f"
("acetone_mod.f")

readlai.f		-- Now references DATA_DIR from "directory_mod.f"

read_liqco2		-- Now references DATA_DIR from "directory_mod.f"
("geia_mod.f")

read_natural_nh3        -- Now references DATA_DIR from "directory_mod.f"
("sulfate_mod.f")

read_nonerup_volc       -- Now references DATA_DIR from "directory_mod.f"
("sulfate_mod.f")

read_ocean_dms		-- Now references DATA_DIR from "directory_mod.f"
("sulfate_mod.f")

read_oxidant		-- Now references DATA_DIR from "directory_mod.f"
("sulfate_mod.f")

read_pco_lco_strat	-- Now references DATA_DIR from "directory_mod.f"
("tagged_co_mod.f")

read_pox_lox		-- Now references O3PL_DIR from "directory_mod.f"
("tagged_ox_mod.f")

read_resp		-- Now references DATA_DIR from "directory_mod.f"
("acetone_mod.f")

read_restart_file	-- No longer use hardwired filename.  
("restart_mod.f")	-- Now references "logical_mod.f"
			-- Now references "tracer_mod.f"

read_ship_so2		-- Now references DATA_DIR from "directory_mod.f"
("sulfate_mod.f")	

read_sst		-- Now references DATA_DIR from "directory_mod.f"
("sulfate_mod.f")	

read_toms		-- Now references DATA_DIR from "directory_mod.f"
("toms_mod.f")

read_todx		-- Now references DATA_DIR from "directory_mod.f"
("geia_mod.f")

read_TOMSO3.f		-- Now references DATA_DIR from "directory_mod.f"

read_totco2		-- Now references DATA_DIR from "directory_mod.f"
("geia_mod.f")

read_tropopause.f	-- Now references DATA_DIR from "directory_mod.f"

read_uvalbedo		-- Now references DATA_DIR from "directory_mod.f"
("uvalbedo_mod.f")

read_variables		-- Now references N_TRACERS & ITS_A_FULLCHEM_SIM 
("planeflight_mod.f")	   from "tracer_mod.f"

read_window_tpcore_bc	-- Now references N_TRACERS from "tracer_mod.f"
("tpcore_bc_mod.f")

ro2_setup		-- Now references ITS_A_FULLCHEM_SIM 
			   from "tracer_mod.f"

save_global_tpcore_bc	-- Now references N_TRACERS and STT from "tracer_mod.f"
("tpcore_bc_mod.f")     -- Now references TIMESTAMP_STRING from "time_mod.f"

scale_biofuel_co	-- Now use inquiry functions in "tracer_mod.f" 
("biofuel_mod.f")	   instead of the variable NSRCX

scale_biomass_co	-- Now references ITS_A_FULLCHEM_SIM, ITS_A_TAGCO_SIM 
("biofuel_mod.f")	   from "tracer_mod.f"	   

scale_biomass_acet	-- Now reference LBBSEA, LTOMSAI, from 
("biomass_mod.f")	   "directory_mod.f"

schem.f			-- Now reference STT & TRACER_MW_KG from "tracer_mod.f"
			-- Now reference DATA_DIR from "directory_mod.f" 
			-- Bug fix: now loop over N_TRACERS and not NNPAR.  
			   NNPAR is the max # of tracers but may not be the
			   actual number of tracers.

seasalt_mod.f		-- Now references "logical_mod.f" and "tracer_mod.f". 
		        -- Comment out SS_SIZE, this has been replaced by 
			   SALA_REDGE_um and SALC_REDGE_um from "tracer_mod.f".
			   Increased NR_MAX to 200.

set_no3			-- Remove references to "error_mod.f" and CMN 
("sulfate_mod.f")

setpl			-- Now bundled into "diag65_mod.f"
("diag65_mod.f")	-- Now does not read prodloss.dat, but uses module
			   variables which are initialized from "input_mod.f" 

settrace		-- Removed NTRACER from the arg list, we can use
("tracerid_mod.f")	   N_TRACERS from "tracer_mod.f"
			-- Now references "tracer_mod.f"
			-- Now does not have to read the "tracer.dat" file

set_timesteps		-- Suppress some output lines 
("time_mod.f")

setup_planeflight	-- Now references GET_NYMD, GET_NHMS and
("planeflight_mod.f")	   EXPAND_DATE from "time_mod.f"
			-- Now also replaces date & time tokens in
		           the input & output filenames

soa_chemistry		-- Now references STT from "tracer_mod.f"
("carbon_mod.f")

soa_depo		-- Remove reference to CMN, it's obsolete
("carbon_mod.f")

soa_lump		-- Now references STT from "tracer_mod.f"
("carbon_mod.f")

soa_partition		-- Now references STT from "tracer_mod.f"
("carbon_mod.f")

src_dust_dead		-- Now references DATA_DIR from "directory_mod.f"
("dust_mod.f")

src_dust_ginoux		-- Now references DATA_DIR from "directory_mod.f"
("dust_mod.f")

srcsalt			-- Now references SALA_REDGE_um and SALC_REDGE_um 
("seasalt_mod.f")	   from "tracer_mod.f"

srcso2			-- Now references LSHIPSO2 from "logical_mod.f"
("sulfate_mod.f")

strrepl			-- Replace LEN_TRIM with LEN, which allows us 
("charpak_mod.f")	   to replace tabs w/ spaces.

test_valid		-- Now references ITS_A_FULLCHEM_SIM from 
("planeflight_mod.f")	   "tracer_mod.f"

time_mod.f		-- Added routine ITS_A_NEW_SEASON

tracerid		-- Now references "tracer_mod.f"
("tracerid_mod.f")	-- NAME is now CHARACTER*14 

transport_mod.f		-- Added args to INIT_TRANSPORT for IORD, JORD, KORD
			-- IORD, JORD, KORD are now module variables

unzip_a3_fields		-- Now reference "directory_mod.f" and 
("a3_read_mod.f")          "unix_cmds_mod.f"
			-- Remove reference to CMN_SETUP
			-- Now prevent EXPAND_DATE from overwriting directory
			   paths with Y/M/D tokens in them

unzip_a6_fields		-- Now reference "directory_mod.f" and 
("a6_read_mod.f")          "unix_cmds_mod.f"
			-- Remove reference to CMN_SETUP
			-- Now prevent EXPAND_DATE from overwriting directory
			   paths with Y/M/D tokens in them

unzip_gwet_fields	-- Now reference "directory_mod.f" and 
("gwet_read_mod.f")        "unix_cmds_mod.f"
			-- Remove reference to CMN_SETUP
			-- Now prevent EXPAND_DATE from overwriting directory
			   paths with Y/M/D tokens in them

unzip_i6_fields		-- Now reference "directory_mod.f" and 
("i6_read_mod.f")          "unix_cmds_mod.f"
			-- Remove reference to CMN_SETUP
			-- Now prevent EXPAND_DATE from overwriting directory
			   paths with Y/M/D tokens in them

unzip_phis_fields	-- Now reference "directory_mod.f" and 
("phis_read_mod.f")        "unix_cmds_mod.f"
			-- Remove reference to CMN_SETUP
			-- Now prevent EXPAND_DATE from overwriting directory
			   paths with Y/M/D tokens in them

upbdflx_mod.f		-- Added routine INIT_UPBDFLX
		
upbdflx_noy		-- Now references STT from "tracer_mod.f"
("upbdflx_mod.f")	-- Now references DATA_DIR from "directory_mod.f"

upbdflx_o3		-- Removed IORD, JORD, KORD from the arg list.  
("upbdflx_mod.f")	-- Now reference STT and ITS_A_TAGOX_SIM 
			   from "tracer_mod.f". 

xltmmp.f		-- Removed OPTIONAL status from IJLOOP, in order
			   to facilitate compiling w/ -C on Altix

washfrac_aerosol	-- This is now a module procedure instead of being 
("wetscav_mod.f")	   an internal function to WASHOUT
			-- All arguments are now passed explicitly

washfrac_liq_gas	-- This is now a module procedure instead of being 
("wetscav_mod.f")	   an internal function to WASHOUT
			-- All arguments are now passed explicitly

washout			-- Now move internal routines WASHFRAC_AEROSOL and 
("wetscav_mod.f")	   WASHFRAC_LIQ_GAS to the module and pass all 
			   arguments explicitly.  This facilitates
			   parallelization on the Altix platform 

wetdep			-- Now references STT & N_TRACERS from "tracer_mod.f"
("wetscav_mod.f")	-- Now change dimension of DSTT from (N,L) to
			   (N,L,I,J).  This facilitates compiling with -C
			   on the SGI platform.

wetdepid		-- Now references N_TRACERS, TRACER_NAME, 
("wetscav_mod.f")	   TRACER_MW_KG from "tracer_mod.f"
			-- Removed reference to NSRCX

wet_settling		-- Now references SALA_REDGE_um and SALC_REDGE_um 
("seasalt_mod.f")	   from "tracer_mod.f"

write_diag51		-- Removed references to CMN and CMN_TIMES
("diag51_mod.f")