REVISIONS (v7-02-02)  
bmy, 16 Dec 2004


New in v7-02-02:
-------------------------------------------------------------------------------

mercury_mod.f		-- Contains routines and variables for the GEOS-CHEM
			   mercury simulation



Removed in v7-02-02:
-------------------------------------------------------------------------------




Changed from v7-02-01:
-------------------------------------------------------------------------------

cleanup.f		-- Now call CLEANUP_MERCURY from "mercury_mod.f"

CMN_DIAG		-- Remove reference to obsolete TOFDY0 variable

compute_f		-- Updated for mercury aerosol tracers
("wetscav_mod.f")

diag3.f		       	-- Now save ND03 mercury diagnostic arrays to bpch file
			-- Also updated ND44 for tagged Hg tracers

diag_mod.f		-- Added extra arrays for ND03 mercury diagnostics

do_chemistry		-- Now call routine CHEMMERCURY from "mercury_mod.f" 
("chemistry_mod.f")	   for an offline Hg0/Hg2/HgP simulation

do_emissions		-- Now calls EMISSMERCURY from "mercury_mod.f"
("emissions_mod.f")

get_a3_time		-- Remove reference to FIRST variable
("time_mod.f")

get_wetdep_nmax		-- Updated for mercury aerosol tracers 
("wetscav_mod.f")

init_diag		-- Now deallocate extra arrays for ND03 diagnostics
("diag_mod.f")

init_drydep		-- Add Hg2, HgP tracers to the case statement
("drydep_mod.f")

init_tracerid		-- Now zero flags for total & tagged Hg tracers
("tracerid_mod.f")

initialize.f		-- Now initialize extra arrays for ND03 mercury diag
			-- Also remove reference to obsolete TOFDY0 variable

main.f			-- Simplify IF statement for daily data

ndxx_setup.f		-- Now allocate extra arrays for ND03 mercury diag
			-- Also set up for mercury tracers in ND44 diagnostic

ohno3time		-- Also added parallel loop over grid boxes
("mercury_mod.f")

rainout			-- Updated for mercury aerosol tracers 
("wetscav_mod.f")

rdland.f		-- Now use AVHRR LAI derived land-type data which 
			   is stored in the leaf_area_index_200412 
			   subdirectory of DATA_DIR
			-- Also updated comments and added standard GEOS-CHEM
			   program documentation header.

read_deposition_menu	-- Now print informational message for Tagged Hg
("input_mod.f")

readlai.f 		-- Now use AVHRR LAI derived leaf-area index data 
			   which is stored in the leaf_area_index_200412 
			   subdirectory of DATA_DIR


tracerid		-- Added IDTHG0, IDTHG2, IDTHGP + tagged Hg's flags
("tracerid_mod.f")

washout			-- Updated for mercury aerosol tracers 
("wetscav_mod.f")

wetdepid	       	-- Updated for mercury aerosol tracers 
("wetscav_mod.f")