EXPID:  OutputDir/GEOSChem
EXPDSC: GEOS-Chem_devel
CoresPerNode: 6
Allow_Overwrite: .true.
VERSION: 1

#==============================================================================
# Define grid labels
#
# Define output grids different from the native cubed sphere in this section.
# Each diagnostics collection is output on the native resolution global cubed
# sphere grid unless a different grid defined here is set for that collection
# in the collections section of this file.
#
# See the examples below for defining different types of grid at different
# resolutions. See the collections section later on in this file for instructions on
# using an alternative grid for output.
#
# Beware that the online regridding is area-conserving. Only diagnostics
# independent of grid cell area should be output on a custom grid. For more
# information see the HISTORY.rc page at gchp.readthedocs.io/.
#==============================================================================
GRID_LABELS: #PE24x144-CF
             #PC360x181-DC
             #REGIONAL1x1
    ::

    # Example of cubed-sphere grid at c24 resolution
    PE24x144-CF.GRID_TYPE: Cubed-Sphere
    PE24x144-CF.IM_WORLD: 24
    PE24x144-CF.JM_WORLD: 144
    PE24x144-CF.LM: 72

    # Example of lat-lon global grid at 1x1 resolution
    PC360x181-DC.GRID_TYPE: LatLon
    PC360x181-DC.IM_WORLD: 360
    PC360x181-DC.JM_WORLD: 181
    PC360x181-DC.POLE: PC
    PC360x181-DC.DATELINE: DC
    PC360x181-DC.LM: 72

    # Example of lat-lon regional grid at 1x1 resolution
    REGIONAL1x1.GRID_TYPE: LatLon
    REGIONAL1x1.IM_WORLD: 80
    REGIONAL1x1.JM_WORLD: 40
    REGIONAL1x1.POLE: XY
    REGIONAL1x1.DATELINE: XY
    REGIONAL1x1.LON_RANGE:   0 80
    REGIONAL1x1.LAT_RANGE: -30 10
    REGIONAL1x1.LM: 72

#==============================================================================
# Declare collection names
#
# You can disable collections by commenting out with #
#==============================================================================
COLLECTIONS: 'GCHPctmEnvLevCenter',
             'GCHPctmEnvLevEdge',
::
#==============================================================================
# Define collections
#
# The rest of this file consists of collection definitions.
# Above collections whose declarations are commented out will be ignored.
# You can skip individual diagnostics by commenting out their names.
#
# WARNING: Frequency, duration, and mode will be over-written with
# settings in setCommonRunSettings.sh. Edit settings in that file. You can execute the
# script to update this file and then inspect results before submitting a
# run. Collection names are hard-coded in that file; if you add more
# collections then you must also add them there for auto-update, or manually
# change settings for the new collection in this file.
#
# NOTES:
#    (1) Template keyword defines suffix of output filename, appended to
#        '{EXPID}.{collection}.'. See top of this file for EXPID definition.
#
#    (2) Frequency keyword sets frequency of data in each output file
#
#    (3) Duration keyword sets frequency of output file
#  
#    (4) Mode keyword may be 'time-averaged' or 'instantaneous'
#
#    (5) See the GRID_LABELS sections above for details about output grids
#
#    (6) To output data on a grid other than native res global cubed sphere
#        include the 'grid_label' field. For example, 
#
#           SpeciesConc.grid_label:   REGIONAL1x1
#
#    (7) If you are outputting on a lat/lon grid, be sure to specify
#        conservative regridding. Otherwise regridding will be bi-linear.
#
#           SpeciesConc.conservative: 1
#
#    (8) To output a reduced set of levels, use the levels keyword, e.g.:
#
#           SpeciesConc.levels: 1 2 3
#
#==============================================================================
  GCHPctmEnvLevEdge.template:       '%y4%m2%d2_%h2%n2z.nc4',
  GCHPctmEnvLevEdge.format:         'CFIO',
  GCHPctmEnvLevEdge.timestampStart: .true.
  GCHPctmEnvLevEdge.monthly:        1
  GCHPctmEnvLevEdge.frequency:      010000
  GCHPctmEnvLevEdge.duration:       010000
  GCHPctmEnvLevEdge.mode:           'time-averaged'
  GCHPctmEnvLevEdge.fields:         'UpwardsMassFlux    ', 'GCHPctmEnv',
                                    'PLE0               ', 'GCHPctmEnv',
                                    'PLE1               ', 'GCHPctmEnv',
                                    'DryPLE0            ', 'GCHPctmEnv',
                                    'DryPLE1            ', 'GCHPctmEnv',
::
#==============================================================================
  GCHPctmEnvLevCenter.template:       '%y4%m2%d2_%h2%n2z.nc4',
  GCHPctmEnvLevCenter.format:         'CFIO',
  GCHPctmEnvLevCenter.timestampStart: .true.
  GCHPctmEnvLevCenter.monthly:        1
  GCHPctmEnvLevCenter.frequency:      010000
  GCHPctmEnvLevCenter.duration:       010000
  GCHPctmEnvLevCenter.mode:           'time-averaged'
  GCHPctmEnvLevCenter.fields:         'SPHU0    ', 'GCHPctmEnv',
                                      'CX       ', 'GCHPctmEnv',
                                      'CY       ', 'GCHPctmEnv',
                                      'MFX      ', 'GCHPctmEnv',
                                      'MFY      ', 'GCHPctmEnv',
::
