
EXPID:  OutputDir/GEOSChem
EXPDSC: GEOS-Chem_devel
CoresPerNode: 6
VERSION: 1

#==============================================================================
# Define grid labels
#
# Define output grids different from the native cubed sphere in this section.
# Each diagnostics collection is output on the native resolution global cubed
# sphere grid unless a different grid defined here is set for that collection
# in the collections section of this file.
#
# See the examples below for defining different types of grid at different
# resolutions.
#
# See the collections section later on in this file for instructions on
# using an alternative grid for output.
#==============================================================================
GRID_LABELS: PE24x144-CF
             PC360x181-DC
             REGIONAL1x1
    ::

    # Example of cubed-sphere grid at c24 resolution
    PE24x144-CF.GRID_TYPE: Cubed-Sphere
    PE24x144-CF.IM_WORLD: 24
    PE24x144-CF.JM_WORLD: 144
    PE24x144-CF.LM: 72

    # Example of lat-lon global grid at 1x1 resolution
    PC360x181-DC.GRID_TYPE: LatLon
    PC360x181-DC.IM_WORLD: 360
    PC360x181-DC.JM_WORLD: 181
    PC360x181-DC.POLE: PC
    PC360x181-DC.DATELINE: DC
    PC360x181-DC.LM: 72

    # Example of lat-lon regional grid at 1x1 resolution
    REGIONAL1x1.GRID_TYPE: LatLon
    REGIONAL1x1.IM_WORLD: 80
    REGIONAL1x1.JM_WORLD: 40
    REGIONAL1x1.POLE: XY
    REGIONAL1x1.DATELINE: XY
    REGIONAL1x1.LON_RANGE:   0 80
    REGIONAL1x1.LAT_RANGE: -30 10
    REGIONAL1x1.LM: 72

#==============================================================================
# Declare collection names
#
# You can disable collections by commenting out with #
#
# WARNING: Some diagnostic collections have a subset of output fields
# commented out by default. Inspect fields of collections you turn on
# before running to ensure you will get the output you intend.
#==============================================================================
COLLECTIONS: @#'DefaultCollection',
             #'AerosolMass',
             #'Aerosols',
             @#'Budget',
             @#'CloudConvFlux',
             @#'ConcAboveSfc',
             @#'ConcAfterChem',
             @#'DryDep',
             #'Emissions',
             #'JValues',
             #'Metrics',
             @#'KppDiags',
             @#'KppARDiags',
             @#'LevelEdgeDiags',
             @#'ProdLoss',
             @##'RRTMG',
             @##'RxnRates',
             #'SpeciesConc',
             @#'StateChm',
             #'StateMet',
             @#'StratBM',
             @#'WetLossConv',
             @#'WetLossLS',
::
#==============================================================================
# Define collections
#
# The rest of this file consists of collection definitions.
# Above collections whose declarations are commented out will be ignored.
# You can skip individual diagnostics by commenting out their names.
#
# WARNING: Frequency, duration, and mode will be over-written with
# settings in setCommonRunSettings.sh. Edit settings in that file. You can execute the
# script to update this file and then inspect results before submitting a
# run. Collection names are hard-coded in that file; if you add more
# collections then you must also add them there for auto-update, or manually
# change settings for the new collection in this file.
#
# NOTES:
#    (1) Template keyword defines suffix of output filename, appended to
#        GCHP.{collection}.
#
#    (2) Frequency keyword sets frequency of data in each output file
#
#    (3) Duration keyword sets frequency of output file
#
#    (4) Mode keyword may be 'time-averaged' or 'instantaneous'
#
#    (5) See the GRID_LABELS sections above for details about output grids
#
#    (6) To output data on a grid other than native res global cubed sphere
#        include the 'grid_label' field. For example,
#
#           SpeciesConc.grid_label:   REGIONAL1x1
#
#    (7) If you are outputting on a lat/lon grid, be sure to specify
#        conservative regridding. Otherwise regridding will be bi-linear.
#
#           SpeciesConc.conservative: 1
#
#    (8) To output a reduced set of levels, use the levels keyword, e.g.:
#
#           SpeciesConc.levels: 1 2 3
#
#==============================================================================

#==============================================================================
# %%%%% THE DefaultCollection COLLECTION %%%%%
#
# Reduced set of output including some species concentrations, met-fields,
# and PM2.5
#
# Available for full-chemistry simulations
#==============================================================================
  DefaultCollection.template:       '%y4%m2%d2_%h2%n2z.nc4',
  DefaultCollection.format:         'CFIO',
  DefaultCollection.timestampStart: .true.
  DefaultCollection.frequency:      240000
  DefaultCollection.duration:       240000
  DefaultCollection.mode:           'time-averaged'
  DefaultCollection.fields:         'SpeciesConcVV_O3     ', 'GCHPchem',
                                    'SpeciesConcVV_NO     ', 'GCHPchem',
                                    'SpeciesConcVV_NO2    ', 'GCHPchem',
                                    'SpeciesConcVV_OH     ', 'GCHPchem',
                                    'SpeciesConcVV_CO     ', 'GCHPchem',
                                    'PM25                 ', 'GCHPchem',
                                    'Met_T                ', 'GCHPchem',
                                    'Met_RH               ', 'GCHPchem',
                                    'Met_PBLH             ', 'GCHPchem',
                                    'Met_AIRDEN           ', 'GCHPchem',
                                    'Met_PMID             ', 'GCHPchem',
                                    'Met_PMIDDRY          ', 'GCHPchem',    
                                    'Met_TropHt           ', 'GCHPchem',
                                    'Met_TropP            ', 'GCHPchem',
                                    'Met_BXHEIGHT         ', 'GCHPchem',
                                    'Met_PS1DRY           ', 'GCHPchem',
                                    'Met_PS1WET           ', 'GCHPchem',
::
#==============================================================================
# %%%%% THE Emissions COLLECTION %%%%%
#
# HEMCO emissions by species and category, and inventory emissions
#
# Please note that this collection is output with level definition flipped
# relative to all other GCHP diagnostics. Level index 1 corresponds to
# top-of-atmosphere.
#
# See HEMCO_Diagn.rc for additional config settings
#==============================================================================
  Emissions.template:       '%y4%m2%d2_%h2%n2z.nc4',
  Emissions.format:         'CFIO',
  Emissions.timestampStart: .true.
  Emissions.monthly:        1
  Emissions.frequency:      010000
  Emissions.duration:       010000
  Emissions.mode:           'time-averaged'
  Emissions.fields:       'EmisACET_Total       ', 'GCHPchem',
                          'EmisACET_BioBurn     ', 'GCHPchem',
                          'EmisACET_Biogenic    ', 'GCHPchem',
                          'EmisACET_Ocean       ', 'GCHPchem',
                          'EmisALD2_Total       ', 'GCHPchem',
                          'EmisALD2_Anthro      ', 'GCHPchem',
                          'EmisALD2_BioBurn     ', 'GCHPchem',
                          'EmisALD2_Biogenic    ', 'GCHPchem',
                          'EmisALD2_Ocean       ', 'GCHPchem',
                          'EmisALD2_PlantDecay  ', 'GCHPchem',
                          'EmisALD2_Ship        ', 'GCHPchem',
                          'EmisALK4_Total       ', 'GCHPchem',
                          'EmisALK4_Aircraft    ', 'GCHPchem',
                          'EmisALK4_Anthro      ', 'GCHPchem',
                          'EmisALK4_BioBurn     ', 'GCHPchem',
                          'EmisALK4_Ship        ', 'GCHPchem',
                          'EmisBCPI_Total       ', 'GCHPchem',
                          'EmisBCPI_Aircraft    ', 'GCHPchem',
                          'EmisBCPI_Anthro      ', 'GCHPchem',
                          'EmisBCPI_BioBurn     ', 'GCHPchem',
                          'EmisBCPI_Ship        ', 'GCHPchem',
                          'EmisBCPO_Total       ', 'GCHPchem',
                          'EmisBCPO_Anthro      ', 'GCHPchem',
                          'EmisBCPO_BioBurn     ', 'GCHPchem',
                          'EmisBCPO_Ship        ', 'GCHPchem',
                          'EmisBENZ_Total       ', 'GCHPchem',
                          'EmisBENZ_Anthro      ', 'GCHPchem',
                          'EmisBENZ_BioBurn     ', 'GCHPchem',
                          'EmisBENZ_Ship        ', 'GCHPchem',
                          'EmisC2H2_Total       ', 'GCHPchem',
                          'EmisC2H2_Anthro      ', 'GCHPchem',
                          'EmisC2H2_BioBurn     ', 'GCHPchem',
                          'EmisC2H2_Ship        ', 'GCHPchem',
                          'EmisC2H4_Total       ', 'GCHPchem',
                          'EmisC2H4_Anthro      ', 'GCHPchem',
                          'EmisC2H4_BioBurn     ', 'GCHPchem',
                          'EmisC2H4_Biogenic    ', 'GCHPchem',
                          'EmisC2H4_Ship        ', 'GCHPchem',
                          'EmisC2H6_Total       ', 'GCHPchem',
                          'EmisC2H6_Aircraft    ', 'GCHPchem',
                          'EmisC2H6_Anthro      ', 'GCHPchem',
                          'EmisC2H6_BioBurn     ', 'GCHPchem',
                          'EmisC2H6_Ship        ', 'GCHPchem',
                          'EmisC3H8_Total       ', 'GCHPchem',
                          'EmisC3H8_Aircraft    ', 'GCHPchem',
                          'EmisC3H8_Anthro      ', 'GCHPchem',
                          'EmisC3H8_BioBurn     ', 'GCHPchem',
                          'EmisC3H8_Ship        ', 'GCHPchem',
                          'EmisCH2Br2_Ocean     ', 'GCHPchem',
                          'EmisCH2I2_Ocean      ', 'GCHPchem',
                          'EmisCH2ICl_Ocean     ', 'GCHPchem',
                          'EmisCH2IBr_Ocean     ', 'GCHPchem',
                          'EmisCH2O_Total       ', 'GCHPchem',
                          'EmisCH2O_Aircraft    ', 'GCHPchem',
                          'EmisCH2O_Anthro      ', 'GCHPchem',
                          'EmisCH2O_BioBurn     ', 'GCHPchem',
                          'EmisCH2O_Ship        ', 'GCHPchem',
                          'EmisCH3I_Ocean       ', 'GCHPchem',
                          ##'EmisCH4_Total        ', 'GCHPchem',
                          ##'EmisCH4_Anthro       ', 'GCHPchem',
                          ##'EmisCH4_BioBurn      ', 'GCHPchem',
                          ##'EmisCH4_Ship         ', 'GCHPchem',
                          'EmisCHBr3_Ocean      ', 'GCHPchem',
                          'EmisCO_Total         ', 'GCHPchem',
                          'EmisCO_Aircraft      ', 'GCHPchem',
                          'EmisCO_Anthro        ', 'GCHPchem',
                          'EmisCO_BioBurn       ', 'GCHPchem',
                          'EmisCO_Ship          ', 'GCHPchem',
                          'EmisCO2_Total        ', 'GCHPchem',
                          'EmisCO2_Anthro       ', 'GCHPchem',
                          'EmisCO2_BioBurn      ', 'GCHPchem',
                          'EmisCO2_Ship         ', 'GCHPchem',
                          'EmisDMS_Ocean        ', 'GCHPchem',
                          'EmisDST1_Total       ', 'GCHPchem',
                          'EmisDST1_Anthro      ', 'GCHPchem',
                          'EmisDST1_Natural     ', 'GCHPchem',
                          'EmisDST2_Natural     ', 'GCHPchem',
                          'EmisDST3_Natural     ', 'GCHPchem',
                          'EmisDST4_Natural     ', 'GCHPchem',
                          'EmisEOH_Total        ', 'GCHPchem',
                          'EmisEOH_Anthro       ', 'GCHPchem',
                          'EmisEOH_BioBurn      ', 'GCHPchem',
                          'EmisEOH_Biogenic     ', 'GCHPchem',
                          'EmisEOH_PlantDecay   ', 'GCHPchem',
                          'EmisEOH_Ship         ', 'GCHPchem',
                          'EmisETNO3_Ocean      ', 'GCHPchem',
                          'EmisH2O_Aircraft     ', 'GCHPchem',
                          'EmisHCOOH_Total      ', 'GCHPchem',
                          'EmisHCOOH_Anthro     ', 'GCHPchem',
                          'EmisHCOOH_Ship       ', 'GCHPchem',
                          'EmisHNO3_Ship        ', 'GCHPchem',
                          'EmisHONO_Aircraft    ', 'GCHPchem',
                          'EmisISOP_Total       ', 'GCHPchem',
                          'EmisISOP_Biogenic    ', 'GCHPchem',
                          'EmisLIMO_Biogenic    ', 'GCHPchem',
                          'EmisMACR_Total       ', 'GCHPchem',
                          'EmisMACR_Aircraft    ', 'GCHPchem',
                          'EmisMEK_Total        ', 'GCHPchem',
                          'EmisMEK_Anthro       ', 'GCHPchem',
                          'EmisMEK_BioBurn      ', 'GCHPchem',
                          'EmisMEK_Ship         ', 'GCHPchem',
                          'EmisMENO3_Ocean      ', 'GCHPchem',
                          ##'EmisMGLY_Total       ', 'GCHPchem',
                          ##'EmisMGLY_Anthro      ', 'GCHPchem',
                          'EmisMOH_Total        ', 'GCHPchem',
                          'EmisMOH_Anthro       ', 'GCHPchem',
                          'EmisMOH_BioBurn      ', 'GCHPchem',
                          'EmisMOH_Biogenic     ', 'GCHPchem',
                          'EmisMOH_Ocean        ', 'GCHPchem',
                          'EmisMOH_Ship         ', 'GCHPchem',
                          'EmisMTPA_Total       ', 'GCHPchem',
                          'EmisMTPA_BioBurn     ', 'GCHPchem',
                          'EmisMTPA_Biogenic    ', 'GCHPchem',
                          'EmisMTPO_Biogenic    ', 'GCHPchem',
                          'EmisNAP_Total        ', 'GCHPchem',
                          'EmisNAP_Anthro       ', 'GCHPchem',
                          'EmisNAP_BioBurn      ', 'GCHPchem',
                          'EmisNH3_Total        ', 'GCHPchem',
                          'EmisNH3_Anthro       ', 'GCHPchem',
                          'EmisNH3_BioBurn      ', 'GCHPchem',
                          'EmisNH3_Natural      ', 'GCHPchem',
                          'EmisNH3_Seabirds     ', 'GCHPchem',
                          'EmisNH3_Ship         ', 'GCHPchem',
                          'EmisNO_Total         ', 'GCHPchem',
                          'EmisNO_Aircraft      ', 'GCHPchem',
                          'EmisNO_Anthro        ', 'GCHPchem',
                          'EmisNO_BioBurn       ', 'GCHPchem',
                          'EmisNO_Lightning     ', 'GCHPchem',
                          'EmisNO_Ship          ', 'GCHPchem',
                          'EmisNO_Soil          ', 'GCHPchem',
                          'EmisNO2_Total        ', 'GCHPchem',
                          'EmisNO2_Aircraft     ', 'GCHPchem',
                          'EmisNO2_Ship         ', 'GCHPchem',
                          'EmisO3_Ship          ', 'GCHPchem',
                          'EmisOCPI_Total       ', 'GCHPchem',
                          'EmisOCPI_Aircraft    ', 'GCHPchem',
                          'EmisOCPI_Anthro      ', 'GCHPchem',
                          'EmisOCPI_BioBurn     ', 'GCHPchem',
                          'EmisOCPI_Ship        ', 'GCHPchem',
                          'EmisOCPO_Total       ', 'GCHPchem',
                          'EmisOCPO_Anthro      ', 'GCHPchem',
                          'EmisOCPO_BioBurn     ', 'GCHPchem',
                          'EmisOCPO_Ship        ', 'GCHPchem',
                          'EmispFe_Total        ', 'GCHPchem',
                          'EmispFe_Anthro       ', 'GCHPchem',
                          'EmispFe_Ship         ', 'GCHPchem',
                          'EmisPOG1_Total       ', 'GCHPchem',
                          'EmisPOG1_Anthro      ', 'GCHPchem',
                          'EmisPOG1_BioBurn     ', 'GCHPchem',
                          'EmisPOG2_Total       ', 'GCHPchem',
                          'EmisPOG2_Anthro      ', 'GCHPchem',
                          'EmisPOG2_BioBurn     ', 'GCHPchem',
                          'EmisPRPE_Total       ', 'GCHPchem',
                          'EmisPRPE_Aircraft    ', 'GCHPchem',
                          'EmisPRPE_Anthro      ', 'GCHPchem',
                          'EmisPRPE_BioBurn     ', 'GCHPchem',
                          'EmisPRPE_Biogenic    ', 'GCHPchem',
                          'EmisPRPE_Ship        ', 'GCHPchem',
                          'EmisRCHO_Total       ', 'GCHPchem',
                          'EmisRCHO_Aircraft    ', 'GCHPchem',
                          ##'EmisSESQ_Biogenic    ', 'GCHPchem',
                          'EmisSALA_Natural     ', 'GCHPchem',
                          ##'EmisBrSALA_Natural   ', 'GCHPchem',
                          'EmisSALAAL_Natural   ', 'GCHPchem',
                          'EmisSALACL_Natural   ', 'GCHPchem',
                          'EmisSALC_Natural     ', 'GCHPchem',
                          ##'EmisBrSALC_Natural   ', 'GCHPchem',
                          'EmisSALCAL_Natural   ', 'GCHPchem',
                          'EmisSALCCL_Natural   ', 'GCHPchem',
                          'EmisSO2_Total        ', 'GCHPchem',
                          'EmisSO2_Aircraft     ', 'GCHPchem',
                          'EmisSO2_Anthro       ', 'GCHPchem',
                          'EmisSO2_BioBurn      ', 'GCHPchem',
                          'EmisSO2_VolcErupt    ', 'GCHPchem',
                          'EmisSO2_VolcDegas    ', 'GCHPchem',
                          'EmisSO2_Ship         ', 'GCHPchem',
                          'EmisSO4_Total        ', 'GCHPchem',
                          'EmisSO4_Aircraft     ', 'GCHPchem',
                          'EmisSO4_Anthro       ', 'GCHPchem',
                          'EmisSO4_Ship         ', 'GCHPchem',
                          'EmisSOAP_Total       ', 'GCHPchem',
                          'EmisSOAP_Aircraft    ', 'GCHPchem',
                          'EmisSOAP_Anthro      ', 'GCHPchem',
                          'EmisSOAP_Biogenic    ', 'GCHPchem',
                          'EmisSOAP_BioBurn     ', 'GCHPchem',
                          'EmisSOAP_Ship        ', 'GCHPchem',
                          'EmisSOAS_Biogenic    ', 'GCHPchem',
                          'EmisTOLU_Total       ', 'GCHPchem',
                          'EmisTOLU_Anthro      ', 'GCHPchem',
                          'EmisTOLU_BioBurn     ', 'GCHPchem',
                          'EmisTOLU_Ship        ', 'GCHPchem',
                          'EmisXYLE_Total       ', 'GCHPchem',
                          'EmisXYLE_Anthro      ', 'GCHPchem',
                          'EmisXYLE_BioBurn     ', 'GCHPchem',
                          'EmisXYLE_Ship        ', 'GCHPchem',
                          'HcoLightningFlashRate_Total     ', 'GCHPchem',
                          'HcoLightningFlashRate_IntraCld  ', 'GCHPchem',
                          'HcoLightningFlashRate_CldGround ', 'GCHPchem',
                          'HcoConvectiveCloudTopHeight     ', 'GCHPchem',
                          #'InvCEDS_ALD2         ', 'GCHPchem',
                          #'InvCEDS_ALK4         ', 'GCHPchem',
                          #'InvCEDS_BCPI         ', 'GCHPchem',
                          #'InvCEDS_BCPO         ', 'GCHPchem',
                          #'InvCEDS_BENZ         ', 'GCHPchem',
                          #'InvCEDS_C2H2         ', 'GCHPchem',
                          #'InvCEDS_C2H4         ', 'GCHPchem',
                          #'InvCEDS_C2H6         ', 'GCHPchem',
                          #'InvCEDS_C3H8         ', 'GCHPchem',
                          #'InvCEDS_CH2O         ', 'GCHPchem',
                          #'InvCEDS_CO           ', 'GCHPchem',
                          #'InvCEDS_MOH          ', 'GCHPchem',
                          #'InvCEDS_EOH          ', 'GCHPchem',
                          #'InvCEDS_ROH          ', 'GCHPchem',
                          #'InvCEDS_HCOOH        ', 'GCHPchem',
                          #'InvCEDS_MEK          ', 'GCHPchem',
                          #'InvCEDS_NH3          ', 'GCHPchem',
                          #'InvCEDS_NO           ', 'GCHPchem',
                          #'InvCEDS_OCPI         ', 'GCHPchem',
                          #'InvCEDS_OCPO         ', 'GCHPchem',
                          #'InvCEDS_pFe          ', 'GCHPchem',
                          #'InvCEDS_POG1         ', 'GCHPchem',
                          #'InvCEDS_POG2         ', 'GCHPchem',
                          #'InvCEDS_PRPE         ', 'GCHPchem',
                          #'InvCEDS_SO2          ', 'GCHPchem',
                          #'InvCEDS_SO4          ', 'GCHPchem',
                          #'InvCEDS_SOAP         ', 'GCHPchem',
                          #'InvCEDS_TOLU         ', 'GCHPchem',
                          #'InvCEDS_XYLE         ', 'GCHPchem',
                          #'InvGEIAnatural_NH3   ', 'GCHPchem',
                          #'InvSEABIRDS_NH3      ', 'GCHPchem',
                          #'InvC2H62010_C2H6     ', 'GCHPchem',
                          #'InvXIAO_C3H8         ', 'GCHPchem',
                          #'InvLIANG_CH2Br2      ', 'GCHPchem',
                          #'InvLIANG_CHBr3       ', 'GCHPchem',
                          #'InvORDONEZ_CH2I2     ', 'GCHPchem',
                          #'InvORDONEZ_CH2ICl    ', 'GCHPchem',
                          #'InvORDONEZ_CH2IBr    ', 'GCHPchem',
                          #'InvORDONEZ_CH3I      ', 'GCHPchem',
                          #'InvCEDSship_ALD2     ', 'GCHPchem',
                          #'InvCEDSship_ALK4     ', 'GCHPchem',
                          #'InvCEDSship_BCPI     ', 'GCHPchem',
                          #'InvCEDSship_BCPO     ', 'GCHPchem',
                          #'InvCEDSship_BENZ     ', 'GCHPchem',
                          #'InvCEDSship_C2H2     ', 'GCHPchem',
                          #'InvCEDSship_C2H4     ', 'GCHPchem',
                          #'InvCEDSship_C2H6     ', 'GCHPchem',
                          #'InvCEDSship_C3H8     ', 'GCHPchem',
                          #'InvCEDSship_CH2O     ', 'GCHPchem',
                          #'InvCEDSship_CO       ', 'GCHPchem',
                          #'InvCEDSship_EOH      ', 'GCHPchem',
                          #'InvCEDSship_HCOOH    ', 'GCHPchem',
                          #'InvCEDSship_MEK      ', 'GCHPchem',
                          #'InvCEDSship_NH3      ', 'GCHPchem',
                          #'InvCEDSship_pFe      ', 'GCHPchem',
                          #'InvCEDSship_PRPE     ', 'GCHPchem',
                          #'InvCEDSship_OCPI     ', 'GCHPchem',
                          #'InvCEDSship_OCPO     ', 'GCHPchem',
                          #'InvCEDSship_SO2      ', 'GCHPchem',
                          #'InvCEDSship_SO4      ', 'GCHPchem',
                          #'InvCEDSship_SOAP     ', 'GCHPchem',
                          #'InvCEDSship_TOLU     ', 'GCHPchem',
                          #'InvCEDSship_XYLE     ', 'GCHPchem',
                          #'InvAEIC_ACET     ', 'GCHPchem',
                          #'InvAEIC_ALD2     ', 'GCHPchem',
                          #'InvAEIC_ALK4     ', 'GCHPchem',       
                          #'InvAEIC_BCPI     ', 'GCHPchem',      
                          #'InvAEIC_C2H6     ', 'GCHPchem',
                          #'InvAEIC_C3H8     ', 'GCHPchem',
                          #'InvAEIC_CH2O     ', 'GCHPchem',
                          #'InvAEIC_CO       ', 'GCHPchem',
                          #'InvAEIC_HONO     ', 'GCHPchem',
                          #'InvAEIC_MACR     ', 'GCHPchem',
                          #'InvAEIC_NO       ', 'GCHPchem',
                          #'InvAEIC_NO2      ', 'GCHPchem',
                          #'InvAEIC_OCPI     ', 'GCHPchem',
                          #'InvAEIC_PRPE     ', 'GCHPchem',
                          #'InvAEIC_RCHO     ', 'GCHPchem',
                          #'InvAEIC_SO2      ', 'GCHPchem',
                          #'InvAEIC_SO4      ', 'GCHPchem',
                          #'InvAEIC_SOAP     ', 'GCHPchem',
                          #'InvPLANTDECAY_ALD2   ', 'GCHPchem',
                          #'InvPLANTDECAY_EOH    ', 'GCHPchem',
                          #'InvAFCID_DST1        ', 'GCHPchem',
                          #'InvSeaFlux_ACET      ', 'GCHPchem',
                          #'InvSeaFlux_ALD2      ', 'GCHPchem',
                          #'InvSeaFlux_DMS       ', 'GCHPchem',
                          #'InvSeaFlux_ETNO3     ', 'GCHPchem',
                          #'InvSeaFlux_MENO3     ', 'GCHPchem',
                          #'InvSeaFlux_MOH       ', 'GCHPchem',
                          #'InvPARANOX_HNO3      ', 'GCHPchem',
                          #'InvPARANOX_NO        ', 'GCHPchem',
                          #'InvPARANOX_NO2       ', 'GCHPchem',
                          #'InvPARANOX_O3        ', 'GCHPchem',
                          #'InvLIGHTNOX_NO       ', 'GCHPchem',
                          #'InvSOILNOX_NO        ', 'GCHPchem',
                          #'InvDEAD_DST1         ', 'GCHPchem',
                          #'InvDEAD_DST2         ', 'GCHPchem',
                          #'InvDEAD_DST3         ', 'GCHPchem',
                          #'InvDEAD_DST4         ', 'GCHPchem',
                          #'InvSeaSalt_BrSALA    ', 'GCHPchem',
                          #'InvSeaSalt_BrSALC    ', 'GCHPchem',
                          #'InvSeaSalt_SALA      ', 'GCHPchem',
                          #'InvSeaSalt_SALC      ', 'GCHPchem',
                          #'InvSeaSalt_SALAAL    ', 'GCHPchem',
                          #'InvSeaSalt_SALACL    ', 'GCHPchem',
                          #'InvSeaSalt_SALCAL    ', 'GCHPchem',
                          #'InvSeaSalt_SALCCL    ', 'GCHPchem',  
                          #'InvMEGAN_ALD2        ', 'GCHPchem',
                          ##'InvMEGAN_C2H4        ', 'GCHPchem',
                          #'InvMEGAN_EOH         ', 'GCHPchem',
                          #'InvMEGAN_ISOP        ', 'GCHPchem',
                          #'InvMEGAN_LIMO        ', 'GCHPchem',
                          #'InvMEGAN_MTPA        ', 'GCHPchem',
                          #'InvMEGAN_MTPO        ', 'GCHPchem',
                          #'InvMEGAN_PRPE        ', 'GCHPchem',
                          ##'InvMEGAN_SESQ        ', 'GCHPchem',
                          #'InvMEGAN_SOAP        ', 'GCHPchem',
                          #'InvMEGAN_SOAS        ', 'GCHPchem',
                          #'InvMEGAN_ACET        ', 'GCHPchem',
                          #'InvMEGAN_ACET_MONO   ', 'GCHPchem',
                          #'InvMEGAN_ACET_MBOX   ', 'GCHPchem',
                          #'InvMEGAN_ACET_DIRECT ', 'GCHPchem',
                          #'InvMEGAN_MOH         ', 'GCHPchem',
                          #'InvMEGAN_APIN        ', 'GCHPchem',
                          #'InvMEGAN_BPIN        ', 'GCHPchem',
                          #'InvMEGAN_SABI        ', 'GCHPchem',
                          #'InvMEGAN_MYRC        ', 'GCHPchem',
                          #'InvMEGAN_CARE        ', 'GCHPchem',
                          #'InvMEGAN_OCIM        ', 'GCHPchem',
                          #'InvMEGAN_OMON        ', 'GCHPchem',
                          #'InvMEGAN_MONX        ', 'GCHPchem',
                          #'InvMEGAN_FARN        ', 'GCHPchem',
                          #'InvMEGAN_BCAR        ', 'GCHPchem',
                          #'InvMEGAN_OSQT        ', 'GCHPchem',
                          #'InvMEGAN_MBOX        ', 'GCHPchem',
                          #'InvMEGAN_FAXX        ', 'GCHPchem',
                          #'InvMEGAN_AAXX        ', 'GCHPchem',
                          #'InvGFED_ACET         ', 'GCHPchem',
                          #'InvGFED_ALD2         ', 'GCHPchem',
                          #'InvGFED_ALK4         ', 'GCHPchem',
                          #'InvGFED_BCPI         ', 'GCHPchem',
                          #'InvGFED_BCPO         ', 'GCHPchem',
                          #'InvGFED_BENZ         ', 'GCHPchem',
                          #'InvGFED_C2H6         ', 'GCHPchem',
                          #'InvGFED_C3H8         ', 'GCHPchem',
                          #'InvGFED_CH2O         ', 'GCHPchem',
                          #'InvGFED_CO           ', 'GCHPchem',
                          #'InvGFED_EOH          ', 'GCHPchem',
                          #'InvGFED_MEK          ', 'GCHPchem',
                          #'InvGFED_MOH          ', 'GCHPchem',
                          #'InvGFED_MTPA         ', 'GCHPchem',
                          #'InvGFED_NAP          ', 'GCHPchem',
                          #'InvGFED_NH3          ', 'GCHPchem',
                          #'InvGFED_NO           ', 'GCHPchem',
                          #'InvGFED_OCPI         ', 'GCHPchem',
                          #'InvGFED_OCPO         ', 'GCHPchem',
                          #'InvGFED_POG1         ', 'GCHPchem',
                          #'InvGFED_POG2         ', 'GCHPchem',
                          #'InvGFED_PRPE         ', 'GCHPchem',
                          #'InvGFED_SO2          ', 'GCHPchem',
                          #'InvGFED_SOAP         ', 'GCHPchem',
                          #'InvGFED_TOLU         ', 'GCHPchem',
                          #'InvGFED_XYLE         ', 'GCHPchem',
                          #'InvVOLCANOerupt_SO2  ', 'GCHPchem',
                          #'InvVOLCANOdegas_SO2  ', 'GCHPchem',
                          #'InvIODINE_HOI        ', 'GCHPchem',
                          #'InvIODINE_I2         ', 'GCHPchem',
::
#==============================================================================
# %%%%% THE AerosolMass COLLECTION %%%%%
#
# Aerosol and PM2.5 mass
#
# Available for full-chemistry and aerosol-only simulations
#==============================================================================
  AerosolMass.template:       '%y4%m2%d2_%h2%n2z.nc4',
  AerosolMass.format:         'CFIO',
  AerosolMass.timestampStart: .true.
  AerosolMass.monthly:        1
  AerosolMass.frequency:      010000
  AerosolMass.duration:       010000
  AerosolMass.mode:           'time-averaged'
  AerosolMass.fields:     'AerMassBC          ', 'GCHPchem',
                          'AerMassINDIOL      ', 'GCHPchem',
                          'AerMassLVOCOA      ', 'GCHPchem',
                          'AerMassNH4         ', 'GCHPchem',
                          'AerMassNIT         ', 'GCHPchem',
                          'AerMassPOA         ', 'GCHPchem',
                          'AerMassSAL         ', 'GCHPchem',
                          'AerMassSO4         ', 'GCHPchem',
                          'AerMassSOAGX       ', 'GCHPchem',
                          'AerMassSOAIE       ', 'GCHPchem',
                          'PM25               ', 'GCHPchem',
                          'PM10               ', 'GCHPchem',
                          'TotalOA            ', 'GCHPchem',
                          'TotalOC            ', 'GCHPchem',
                          #'AerMassASOA        ', 'GCHPchem',
                          #'AerMassOPOA        ', 'GCHPchem',
                          #'AerMassTSOA        ', 'GCHPchem',
                          #'BetaNO             ', 'GCHPchem',
                          #'TotalBiogenicOA    ', 'GCHPchem',
::
#==============================================================================
# %%%%% The Aerosols COLLECTION %%%%%
#
# Aerosol optical depth, surface area, number density, and hygroscopic growth
#
# Available for full-chemistry or aerosol-only simulations
#==============================================================================
  Aerosols.template:       '%y4%m2%d2_%h2%n2z.nc4',
  Aerosols.format:         'CFIO',
  Aerosols.timestampStart: .true.
  Aerosols.monthly:        1
  Aerosols.frequency:      010000
  Aerosols.duration:       010000
  Aerosols.mode:           'time-averaged'
  Aerosols.fields:        'AODHygWL1_SO4                 ', 'GCHPchem',
                          'AODHygWL1_BCPI                ', 'GCHPchem',
                          'AODHygWL1_OCPI                ', 'GCHPchem',
                          'AODHygWL1_SALA                ', 'GCHPchem',
                          'AODHygWL1_SALC                ', 'GCHPchem',
                          'AODDust                       ', 'GCHPchem',
                          'AODDustWL1_bin1               ', 'GCHPchem',
                          'AODDustWL1_bin2               ', 'GCHPchem',
                          'AODDustWL1_bin3               ', 'GCHPchem',
                          'AODDustWL1_bin4               ', 'GCHPchem',
                          'AODDustWL1_bin5               ', 'GCHPchem',
                          'AODDustWL1_bin6               ', 'GCHPchem',
                          'AODDustWL1_bin7               ', 'GCHPchem',
                          'AODSOAfromAqIsopreneWL1       ', 'GCHPchem',
                          'AODStratLiquidAerWL1          ', 'GCHPchem',
                          'AODPolarStratCloudWL1         ', 'GCHPchem',
                          'AerHygroscopicGrowth_SO4      ', 'GCHPchem',
                          'AerHygroscopicGrowth_BCPI     ', 'GCHPchem',
                          'AerHygroscopicGrowth_OCPI     ', 'GCHPchem',
                          'AerHygroscopicGrowth_SALA     ', 'GCHPchem',
                          'AerHygroscopicGrowth_SALC     ', 'GCHPchem',
                          'AerNumDensityStratLiquid      ', 'GCHPchem',
                          'AerNumDensityStratParticulate ', 'GCHPchem',
                          'AerAqueousVolume              ', 'GCHPchem',
                          'AerSurfAreaDust               ', 'GCHPchem',
                          'AerSurfAreaHyg_SO4            ', 'GCHPchem',
                          'AerSurfAreaHyg_BCPI           ', 'GCHPchem',
                          'AerSurfAreaHyg_OCPI           ', 'GCHPchem',
                          'AerSurfAreaHyg_SALA           ', 'GCHPchem',
                          'AerSurfAreaHyg_SALC           ', 'GCHPchem',
                          'AerSurfAreaStratLiquid        ', 'GCHPchem',
                          'AerSurfAreaPolarStratCloud    ', 'GCHPchem',
                          'Chem_AeroAreaMDUST1           ', 'GCHPchem',
                          'Chem_AeroAreaMDUST2           ', 'GCHPchem',
                          'Chem_AeroAreaMDUST3           ', 'GCHPchem',
                          'Chem_AeroAreaMDUST4           ', 'GCHPchem',
                          'Chem_AeroAreaMDUST5           ', 'GCHPchem',
                          'Chem_AeroAreaMDUST6           ', 'GCHPchem',
                          'Chem_AeroAreaMDUST7           ', 'GCHPchem',
                          'Chem_AeroAreaSULF             ', 'GCHPchem',
                          'Chem_AeroAreaBC               ', 'GCHPchem',
                          'Chem_AeroAreaOC               ', 'GCHPchem',
                          'Chem_AeroAreaSSA              ', 'GCHPchem',
                          'Chem_AeroAreaSSC              ', 'GCHPchem',
                          'Chem_AeroAreaBGSULF           ', 'GCHPchem',
                          'Chem_AeroAreaICEI             ', 'GCHPchem',
                          'Chem_AeroRadiMDUST1           ', 'GCHPchem',
                          'Chem_AeroRadiMDUST2           ', 'GCHPchem',
                          'Chem_AeroRadiMDUST3           ', 'GCHPchem',
                          'Chem_AeroRadiMDUST4           ', 'GCHPchem',
                          'Chem_AeroRadiMDUST5           ', 'GCHPchem',
                          'Chem_AeroRadiMDUST6           ', 'GCHPchem',
                          'Chem_AeroRadiMDUST7           ', 'GCHPchem',
                          'Chem_AeroRadiSULF             ', 'GCHPchem',
                          'Chem_AeroRadiBC               ', 'GCHPchem',
                          'Chem_AeroRadiOC               ', 'GCHPchem',
                          'Chem_AeroRadiSSA              ', 'GCHPchem',
                          'Chem_AeroRadiSSC              ', 'GCHPchem',
                          'Chem_AeroRadiBGSULF           ', 'GCHPchem',
                          'Chem_AeroRadiICEI             ', 'GCHPchem',
                          'Chem_WetAeroAreaMDUST1        ', 'GCHPchem',
                          'Chem_WetAeroAreaMDUST2        ', 'GCHPchem',
                          'Chem_WetAeroAreaMDUST3        ', 'GCHPchem',
                          'Chem_WetAeroAreaMDUST4        ', 'GCHPchem',
                          'Chem_WetAeroAreaMDUST5        ', 'GCHPchem',
                          'Chem_WetAeroAreaMDUST6        ', 'GCHPchem',
                          'Chem_WetAeroAreaMDUST7        ', 'GCHPchem',
                          'Chem_WetAeroAreaSULF          ', 'GCHPchem',
                          'Chem_WetAeroAreaBC            ', 'GCHPchem',
                          'Chem_WetAeroAreaOC            ', 'GCHPchem',
                          'Chem_WetAeroAreaSSA           ', 'GCHPchem',
                          'Chem_WetAeroAreaSSC           ', 'GCHPchem',
                          'Chem_WetAeroAreaBGSULF        ', 'GCHPchem',
                          'Chem_WetAeroAreaICEI          ', 'GCHPchem',
                          'Chem_WetAeroRadiMDUST1        ', 'GCHPchem',
                          'Chem_WetAeroRadiMDUST2        ', 'GCHPchem',
                          'Chem_WetAeroRadiMDUST3        ', 'GCHPchem',
                          'Chem_WetAeroRadiMDUST4        ', 'GCHPchem',
                          'Chem_WetAeroRadiMDUST5        ', 'GCHPchem',
                          'Chem_WetAeroRadiMDUST6        ', 'GCHPchem',
                          'Chem_WetAeroRadiMDUST7        ', 'GCHPchem',
                          'Chem_WetAeroRadiSULF          ', 'GCHPchem',
                          'Chem_WetAeroRadiBC            ', 'GCHPchem',
                          'Chem_WetAeroRadiOC            ', 'GCHPchem',
                          'Chem_WetAeroRadiSSA           ', 'GCHPchem',
                          'Chem_WetAeroRadiSSC           ', 'GCHPchem',
                          'Chem_WetAeroRadiBGSULF        ', 'GCHPchem',
                          'Chem_WetAeroRadiICEI          ', 'GCHPchem',
                          'Chem_StatePSC                 ', 'GCHPchem',
                          'Chem_KhetiSLAN2O5H2O          ', 'GCHPchem',
                          'Chem_KhetiSLAN2O5HCl          ', 'GCHPchem',
                          'Chem_KhetiSLAClNO3H2O         ', 'GCHPchem',
                          'Chem_KhetiSLAClNO3HCl         ', 'GCHPchem',
                          'Chem_KhetiSLAClNO3HBr         ', 'GCHPchem',
                          'Chem_KhetiSLABrNO3H2O         ', 'GCHPchem',
                          'Chem_KhetiSLABrNO3HCl         ', 'GCHPchem',
                          'Chem_KhetiSLAHOClHCl          ', 'GCHPchem',
                          'Chem_KhetiSLAHOClHBr          ', 'GCHPchem',
                          'Chem_KhetiSLAHOBrHCl          ', 'GCHPchem',
                          'Chem_KhetiSLAHOBrHBr          ', 'GCHPchem',
::
#==============================================================================
# Budget defined as species kg/s in the column (full, troposphere, or PBL)
# due to a single component (e.g. chemistry); default = ozone only; add more
# species as needed (advected only)
#==============================================================================
  Budget.template:        '%y4%m2%d2_%h2%n2z.nc4',
  Budget.format:          'CFIO',
  Budget.timestampStart:  .true.
  Budget.monthly:         1
  Budget.frequency:       010000
  Budget.duration:        010000
  Budget.mode:            'time-averaged'
  Budget.fields:          'BudgetWetDepPBL_SOAS           ', 'GCHPchem',
                          'BudgetWetDepPBL_SOAIE          ', 'GCHPchem',
#                          'BudgetWetDepPBL_SOAGX          ', 'GCHPchem',
#                          'BudgetWetDepPBL_SO4s           ', 'GCHPchem',
#                          'BudgetWetDepPBL_SO4            ', 'GCHPchem',
#                          'BudgetWetDepPBL_SO2            ', 'GCHPchem',
#                          'BudgetWetDepPBL_SALCCL         ', 'GCHPchem',
#                          'BudgetWetDepPBL_SALCAL         ', 'GCHPchem',
#                          'BudgetWetDepPBL_SALC           ', 'GCHPchem',
#                          'BudgetWetDepPBL_SALACL         ', 'GCHPchem',
#                          'BudgetWetDepPBL_SALAAL         ', 'GCHPchem',
#                          'BudgetWetDepPBL_SALA           ', 'GCHPchem',
#                          'BudgetWetDepPBL_RP             ', 'GCHPchem',
#                          'BudgetWetDepPBL_RIPD           ', 'GCHPchem',
#                          'BudgetWetDepPBL_RIPC           ', 'GCHPchem',
#                          'BudgetWetDepPBL_RIPB           ', 'GCHPchem',
#                          'BudgetWetDepPBL_RIPA           ', 'GCHPchem',
#                          'BudgetWetDepPBL_RB3P           ', 'GCHPchem',
#                          'BudgetWetDepPBL_RA3P           ', 'GCHPchem',
#                          'BudgetWetDepPBL_R4P            ', 'GCHPchem',
#                          'BudgetWetDepPBL_R4N2           ', 'GCHPchem',
#                          'BudgetWetDepPBL_PYAC           ', 'GCHPchem',
#                          'BudgetWetDepPBL_PRPN           ', 'GCHPchem',
#                          'BudgetWetDepPBL_PRPE           ', 'GCHPchem',
#                          'BudgetWetDepPBL_PROPNN         ', 'GCHPchem',
#                          'BudgetWetDepPBL_PPN            ', 'GCHPchem',
#                          'BudgetWetDepPBL_PP             ', 'GCHPchem',
#                          'BudgetWetDepPBL_pFe            ', 'GCHPchem',
#                          'BudgetWetDepPBL_PAN            ', 'GCHPchem',
#                          'BudgetWetDepPBL_OCPO           ', 'GCHPchem',
#                          'BudgetWetDepPBL_OCPI           ', 'GCHPchem',
#                          'BudgetWetDepPBL_NITs           ', 'GCHPchem',
#                          'BudgetWetDepPBL_NIT            ', 'GCHPchem',
#                          'BudgetWetDepPBL_NH4            ', 'GCHPchem',
#                          'BudgetWetDepPBL_NH3            ', 'GCHPchem',
#                          'BudgetWetDepPBL_MVKPC          ', 'GCHPchem',
#                          'BudgetWetDepPBL_MVKN           ', 'GCHPchem',
#                          'BudgetWetDepPBL_MVKHP          ', 'GCHPchem',
#                          'BudgetWetDepPBL_MVKHCB         ', 'GCHPchem',
#                          'BudgetWetDepPBL_MVKHC          ', 'GCHPchem',
#                          'BudgetWetDepPBL_MVKDH          ', 'GCHPchem',
#                          'BudgetWetDepPBL_MVK            ', 'GCHPchem',
#                          'BudgetWetDepPBL_MTPO           ', 'GCHPchem',
#                          'BudgetWetDepPBL_MTPA           ', 'GCHPchem',
#                          'BudgetWetDepPBL_MSA            ', 'GCHPchem',
#                          'BudgetWetDepPBL_MPN            ', 'GCHPchem',
#                          'BudgetWetDepPBL_MPAN           ', 'GCHPchem',
#                          'BudgetWetDepPBL_MP             ', 'GCHPchem',
#                          'BudgetWetDepPBL_MONITU         ', 'GCHPchem',
#                          'BudgetWetDepPBL_MONITS         ', 'GCHPchem',
#                          'BudgetWetDepPBL_MONITA         ', 'GCHPchem',
#                          'BudgetWetDepPBL_MOH            ', 'GCHPchem',
#                          'BudgetWetDepPBL_MGLY           ', 'GCHPchem',
#                          'BudgetWetDepPBL_MEK            ', 'GCHPchem',
#                          'BudgetWetDepPBL_MCRHP          ', 'GCHPchem',
#                          'BudgetWetDepPBL_MCRHNB         ', 'GCHPchem',
#                          'BudgetWetDepPBL_MCRHN          ', 'GCHPchem',
#                          'BudgetWetDepPBL_MCRENOL        ', 'GCHPchem',
#                          'BudgetWetDepPBL_MCRDH          ', 'GCHPchem',
#                          'BudgetWetDepPBL_MAP            ', 'GCHPchem',
#                          'BudgetWetDepPBL_MACR1OOH       ', 'GCHPchem',
#                          'BudgetWetDepPBL_LVOCOA         ', 'GCHPchem',
#                          'BudgetWetDepPBL_LVOC           ', 'GCHPchem',
#                          'BudgetWetDepPBL_LIMO           ', 'GCHPchem',
#                          'BudgetWetDepPBL_ITHN           ', 'GCHPchem',
#                          'BudgetWetDepPBL_ITCN           ', 'GCHPchem',
#                          'BudgetWetDepPBL_ISALC          ', 'GCHPchem',
#                          'BudgetWetDepPBL_ISALA          ', 'GCHPchem',
#                          'BudgetWetDepPBL_IONO2          ', 'GCHPchem',
#                          'BudgetWetDepPBL_IONO           ', 'GCHPchem',
#                          'BudgetWetDepPBL_IONITA         ', 'GCHPchem',
#                          'BudgetWetDepPBL_INPD           ', 'GCHPchem',
#                          'BudgetWetDepPBL_INPB           ', 'GCHPchem',
#                          'BudgetWetDepPBL_INDIOL         ', 'GCHPchem',
#                          'BudgetWetDepPBL_IHN4           ', 'GCHPchem',
#                          'BudgetWetDepPBL_IHN3           ', 'GCHPchem',
#                          'BudgetWetDepPBL_IHN2           ', 'GCHPchem',
#                          'BudgetWetDepPBL_IHN1           ', 'GCHPchem',
#                          'BudgetWetDepPBL_IEPOXD         ', 'GCHPchem',
#                          'BudgetWetDepPBL_IEPOXB         ', 'GCHPchem',
#                          'BudgetWetDepPBL_IEPOXA         ', 'GCHPchem',
#                          'BudgetWetDepPBL_IDN            ', 'GCHPchem',
#                          'BudgetWetDepPBL_IDHPE          ', 'GCHPchem',
#                          'BudgetWetDepPBL_IDHDP          ', 'GCHPchem',
#                          'BudgetWetDepPBL_IDCHP          ', 'GCHPchem',
#                          'BudgetWetDepPBL_ICPDH          ', 'GCHPchem',
#                          'BudgetWetDepPBL_ICN            ', 'GCHPchem',
#                          'BudgetWetDepPBL_ICl            ', 'GCHPchem',
#                          'BudgetWetDepPBL_ICHE           ', 'GCHPchem',
#                          'BudgetWetDepPBL_IBr            ', 'GCHPchem',
#                          'BudgetWetDepPBL_I2O4           ', 'GCHPchem',
#                          'BudgetWetDepPBL_I2O3           ', 'GCHPchem',
#                          'BudgetWetDepPBL_I2O2           ', 'GCHPchem',
#                          'BudgetWetDepPBL_I2             ', 'GCHPchem',
#                          'BudgetWetDepPBL_HPETHNL        ', 'GCHPchem',
#                          'BudgetWetDepPBL_HONIT          ', 'GCHPchem',
#                          'BudgetWetDepPBL_HOI            ', 'GCHPchem',
#                          'BudgetWetDepPBL_HOCl           ', 'GCHPchem',
#                          'BudgetWetDepPBL_HOBr           ', 'GCHPchem',
#                          'BudgetWetDepPBL_HNO3           ', 'GCHPchem',
#                          'BudgetWetDepPBL_HMML           ', 'GCHPchem',
#                          'BudgetWetDepPBL_HMS            ', 'GCHPchem',
#                          'BudgetWetDepPBL_HMHP           ', 'GCHPchem',
#                          'BudgetWetDepPBL_HI             ', 'GCHPchem',
#                          'BudgetWetDepPBL_HCOOH          ', 'GCHPchem',
#                          'BudgetWetDepPBL_HCl            ', 'GCHPchem',
#                          'BudgetWetDepPBL_HC5A           ', 'GCHPchem',
#                          'BudgetWetDepPBL_HBr            ', 'GCHPchem',
#                          'BudgetWetDepPBL_HAC            ', 'GCHPchem',
#                          'BudgetWetDepPBL_H2O2           ', 'GCHPchem',
#                          'BudgetWetDepPBL_GLYX           ', 'GCHPchem',
#                          'BudgetWetDepPBL_GLYC           ', 'GCHPchem',
#                          'BudgetWetDepPBL_ETP            ', 'GCHPchem',
#                          'BudgetWetDepPBL_ETHP           ', 'GCHPchem',
#                          'BudgetWetDepPBL_ETHN           ', 'GCHPchem',
#                          'BudgetWetDepPBL_ETHLN          ', 'GCHPchem',
#                          'BudgetWetDepPBL_EOH            ', 'GCHPchem',
#                          'BudgetWetDepPBL_DST4           ', 'GCHPchem',
#                          'BudgetWetDepPBL_DST3           ', 'GCHPchem',
#                          'BudgetWetDepPBL_DST2           ', 'GCHPchem',
#                          'BudgetWetDepPBL_DST1           ', 'GCHPchem',
#                          'BudgetWetDepPBL_CH2O           ', 'GCHPchem',
#                          'BudgetWetDepPBL_BrSALC         ', 'GCHPchem',
#                          'BudgetWetDepPBL_BrSALA         ', 'GCHPchem',
#                          'BudgetWetDepPBL_BrCl           ', 'GCHPchem',
#                          'BudgetWetDepPBL_Br2            ', 'GCHPchem',
#                          'BudgetWetDepPBL_BCPO           ', 'GCHPchem',
#                          'BudgetWetDepPBL_BCPI           ', 'GCHPchem',
#                          'BudgetWetDepPBL_ATOOH          ', 'GCHPchem',
#                          'BudgetWetDepPBL_ALD2           ', 'GCHPchem',
#                          'BudgetWetDepPBL_AERI           ', 'GCHPchem',
#                          'BudgetWetDepPBL_ACTA           ', 'GCHPchem',
#                          #'BudgetWetDepPBL_TSOG1          ', 'GCHPchem',
#                          #'BudgetWetDepPBL_TSOG0          ', 'GCHPchem',
#                          #'BudgetWetDepPBL_TSOA3          ', 'GCHPchem',
#                          #'BudgetWetDepPBL_TSOA2          ', 'GCHPchem',
#                          #'BudgetWetDepPBL_TSOA1          ', 'GCHPchem',
#                          #'BudgetWetDepPBL_TSOA0          ', 'GCHPchem',
#                          #'BudgetWetDepPBL_ASOG3          ', 'GCHPchem',
#                          #'BudgetWetDepPBL_ASOG2          ', 'GCHPchem',
#                          #'BudgetWetDepPBL_ASOG1          ', 'GCHPchem',
#                          #'BudgetWetDepPBL_ASOAN          ', 'GCHPchem',
#                          #'BudgetWetDepPBL_ASOA3          ', 'GCHPchem',
#                          #'BudgetWetDepPBL_ASOA2          ', 'GCHPchem',
#                          #'BudgetWetDepPBL_ASOA1          ', 'GCHPchem',
#                          'BudgetWetDepTrop_SOAS          ', 'GCHPchem',
#                          'BudgetWetDepTrop_SOAIE         ', 'GCHPchem',
#                          'BudgetWetDepTrop_SOAGX         ', 'GCHPchem',
#                          'BudgetWetDepTrop_SO4s          ', 'GCHPchem',
#                          'BudgetWetDepTrop_SO4           ', 'GCHPchem',
#                          'BudgetWetDepTrop_SO2           ', 'GCHPchem',
#                          'BudgetWetDepTrop_SALCCL        ', 'GCHPchem',
#                          'BudgetWetDepTrop_SALCAL        ', 'GCHPchem',
#                          'BudgetWetDepTrop_SALC          ', 'GCHPchem',
#                          'BudgetWetDepTrop_SALACL        ', 'GCHPchem',
#                          'BudgetWetDepTrop_SALAAL        ', 'GCHPchem',
#                          'BudgetWetDepTrop_SALA          ', 'GCHPchem',
#                          'BudgetWetDepTrop_RP            ', 'GCHPchem',
#                          'BudgetWetDepTrop_RIPD          ', 'GCHPchem',
#                          'BudgetWetDepTrop_RIPC          ', 'GCHPchem',
#                          'BudgetWetDepTrop_RIPB          ', 'GCHPchem',
#                          'BudgetWetDepTrop_RIPA          ', 'GCHPchem',
#                          'BudgetWetDepTrop_RB3P          ', 'GCHPchem',
#                          'BudgetWetDepTrop_RA3P          ', 'GCHPchem',
#                          'BudgetWetDepTrop_R4P           ', 'GCHPchem',
#                          'BudgetWetDepTrop_R4N2          ', 'GCHPchem',
#                          'BudgetWetDepTrop_PYAC          ', 'GCHPchem',
#                          'BudgetWetDepTrop_PRPN          ', 'GCHPchem',
#                          'BudgetWetDepTrop_PRPE          ', 'GCHPchem',
#                          'BudgetWetDepTrop_PROPNN        ', 'GCHPchem',
#                          'BudgetWetDepTrop_PPN           ', 'GCHPchem',
#                          'BudgetWetDepTrop_PP            ', 'GCHPchem',
#                          'BudgetWetDepTrop_pFe           ', 'GCHPchem',
#                          'BudgetWetDepTrop_PAN           ', 'GCHPchem',
#                          'BudgetWetDepTrop_OCPO          ', 'GCHPchem',
#                          'BudgetWetDepTrop_OCPI          ', 'GCHPchem',
#                          'BudgetWetDepTrop_NITS          ', 'GCHPchem',
#                          'BudgetWetDepTrop_NIT           ', 'GCHPchem',
#                          'BudgetWetDepTrop_NH4           ', 'GCHPchem',
#                          'BudgetWetDepTrop_NH3           ', 'GCHPchem',
#                          'BudgetWetDepTrop_MVKPC         ', 'GCHPchem',
#                          'BudgetWetDepTrop_MVKN          ', 'GCHPchem',
#                          'BudgetWetDepTrop_MVKHP         ', 'GCHPchem',
#                          'BudgetWetDepTrop_MVKHCB        ', 'GCHPchem',
#                          'BudgetWetDepTrop_MVKHC         ', 'GCHPchem',
#                          'BudgetWetDepTrop_MVKDH         ', 'GCHPchem',
#                          'BudgetWetDepTrop_MVK           ', 'GCHPchem',
#                          'BudgetWetDepTrop_MTPO          ', 'GCHPchem',
#                          'BudgetWetDepTrop_MTPA          ', 'GCHPchem',
#                          'BudgetWetDepTrop_MSA           ', 'GCHPchem',
#                          'BudgetWetDepTrop_MPN           ', 'GCHPchem',
#                          'BudgetWetDepTrop_MPAN          ', 'GCHPchem',
#                          'BudgetWetDepTrop_MP            ', 'GCHPchem',
#                          'BudgetWetDepTrop_MONITU        ', 'GCHPchem',
#                          'BudgetWetDepTrop_MONITS        ', 'GCHPchem',
#                          'BudgetWetDepTrop_MONITA        ', 'GCHPchem',
#                          'BudgetWetDepTrop_MOH           ', 'GCHPchem',
#                          'BudgetWetDepTrop_MGLY          ', 'GCHPchem',
#                          'BudgetWetDepTrop_MEK           ', 'GCHPchem',
#                          'BudgetWetDepTrop_MCRHP         ', 'GCHPchem',
#                          'BudgetWetDepTrop_MCRHNB        ', 'GCHPchem',
#                          'BudgetWetDepTrop_MCRHN         ', 'GCHPchem',
#                          'BudgetWetDepTrop_MCRENOL       ', 'GCHPchem',
#                          'BudgetWetDepTrop_MCRDH         ', 'GCHPchem',
#                          'BudgetWetDepTrop_MAP           ', 'GCHPchem',
#                          'BudgetWetDepTrop_MACR1OOH      ', 'GCHPchem',
#                          'BudgetWetDepTrop_LVOCOA        ', 'GCHPchem',
#                          'BudgetWetDepTrop_LVOC          ', 'GCHPchem',
#                          'BudgetWetDepTrop_LIMO          ', 'GCHPchem',
#                          'BudgetWetDepTrop_ITHN          ', 'GCHPchem',
#                          'BudgetWetDepTrop_ITCN          ', 'GCHPchem',
#                          'BudgetWetDepTrop_ISALC         ', 'GCHPchem',
#                          'BudgetWetDepTrop_ISALA         ', 'GCHPchem',
#                          'BudgetWetDepTrop_IONO2         ', 'GCHPchem',
#                          'BudgetWetDepTrop_IONO          ', 'GCHPchem',
#                          'BudgetWetDepTrop_IONITA        ', 'GCHPchem',
#                          'BudgetWetDepTrop_INPD          ', 'GCHPchem',
#                          'BudgetWetDepTrop_INPB          ', 'GCHPchem',
#                          'BudgetWetDepTrop_INDIOL        ', 'GCHPchem',
#                          'BudgetWetDepTrop_IHN4          ', 'GCHPchem',
#                          'BudgetWetDepTrop_IHN3          ', 'GCHPchem',
#                          'BudgetWetDepTrop_IHN2          ', 'GCHPchem',
#                          'BudgetWetDepTrop_IHN1          ', 'GCHPchem',
#                          'BudgetWetDepTrop_IEPOXD        ', 'GCHPchem',
#                          'BudgetWetDepTrop_IEPOXB        ', 'GCHPchem',
#                          'BudgetWetDepTrop_IEPOXA        ', 'GCHPchem',
#                          'BudgetWetDepTrop_IDN           ', 'GCHPchem',
#                          'BudgetWetDepTrop_IDHPE         ', 'GCHPchem',
#                          'BudgetWetDepTrop_IDHDP         ', 'GCHPchem',
#                          'BudgetWetDepTrop_IDCHP         ', 'GCHPchem',
#                          'BudgetWetDepTrop_ICPDH         ', 'GCHPchem',
#                          'BudgetWetDepTrop_ICN           ', 'GCHPchem',
#                          'BudgetWetDepTrop_ICl           ', 'GCHPchem',
#                          'BudgetWetDepTrop_ICHE          ', 'GCHPchem',
#                          'BudgetWetDepTrop_IBr           ', 'GCHPchem',
#                          'BudgetWetDepTrop_I2O4          ', 'GCHPchem',
#                          'BudgetWetDepTrop_I2O3          ', 'GCHPchem',
#                          'BudgetWetDepTrop_I2O2          ', 'GCHPchem',
#                          'BudgetWetDepTrop_I2            ', 'GCHPchem',
#                          'BudgetWetDepTrop_HPETHNL       ', 'GCHPchem',
#                          'BudgetWetDepTrop_HONIT         ', 'GCHPchem',
#                          'BudgetWetDepTrop_HOI           ', 'GCHPchem',
#                          'BudgetWetDepTrop_HOCl          ', 'GCHPchem',
#                          'BudgetWetDepTrop_HOBr          ', 'GCHPchem',
#                          'BudgetWetDepTrop_HNO3          ', 'GCHPchem',
#                          'BudgetWetDepTrop_HMS           ', 'GCHPchem',
#                          'BudgetWetDepTrop_HMML          ', 'GCHPchem',
#                          'BudgetWetDepTrop_HMHP          ', 'GCHPchem',
#                          'BudgetWetDepTrop_HI            ', 'GCHPchem',
#                          'BudgetWetDepTrop_HCOOH         ', 'GCHPchem',
#                          'BudgetWetDepTrop_HCl           ', 'GCHPchem',
#                          'BudgetWetDepTrop_HC5A          ', 'GCHPchem',
#                          'BudgetWetDepTrop_HBr           ', 'GCHPchem',
#                          'BudgetWetDepTrop_HAC           ', 'GCHPchem',
#                          'BudgetWetDepTrop_H2O2          ', 'GCHPchem',
#                          'BudgetWetDepTrop_GLYX          ', 'GCHPchem',
#                          'BudgetWetDepTrop_GLYC          ', 'GCHPchem',
#                          'BudgetWetDepTrop_ETP           ', 'GCHPchem',
#                          'BudgetWetDepTrop_ETHP          ', 'GCHPchem',
#                          'BudgetWetDepTrop_ETHN          ', 'GCHPchem',
#                          'BudgetWetDepTrop_ETHLN         ', 'GCHPchem',
#                          'BudgetWetDepTrop_EOH           ', 'GCHPchem',
#                          'BudgetWetDepTrop_DST4          ', 'GCHPchem',
#                          'BudgetWetDepTrop_DST3          ', 'GCHPchem',
#                          'BudgetWetDepTrop_DST2          ', 'GCHPchem',
#                          'BudgetWetDepTrop_DST1          ', 'GCHPchem',
#                          'BudgetWetDepTrop_CH2O          ', 'GCHPchem',
#                          'BudgetWetDepTrop_BrSALC        ', 'GCHPchem',
#                          'BudgetWetDepTrop_BrSALA        ', 'GCHPchem',
#                          'BudgetWetDepTrop_BrCl          ', 'GCHPchem',
#                          'BudgetWetDepTrop_Br2           ', 'GCHPchem',
#                          'BudgetWetDepTrop_BCPO          ', 'GCHPchem',
#                          'BudgetWetDepTrop_BCPI          ', 'GCHPchem',
#                          'BudgetWetDepTrop_ATOOH         ', 'GCHPchem',
#                          'BudgetWetDepTrop_ALD2          ', 'GCHPchem',
#                          'BudgetWetDepTrop_AERI          ', 'GCHPchem',
#                          'BudgetWetDepTrop_ACTA          ', 'GCHPchem',
#                          #'BudgetWetDepTrop_TSOG3         ', 'GCHPchem',
#                          #'BudgetWetDepTrop_TSOG2         ', 'GCHPchem',
#                          #'BudgetWetDepTrop_TSOG1         ', 'GCHPchem',
#                          #'BudgetWetDepTrop_TSOG0         ', 'GCHPchem',
#                          #'BudgetWetDepTrop_TSOA3         ', 'GCHPchem',
#                          #'BudgetWetDepTrop_TSOA2         ', 'GCHPchem',
#                          #'BudgetWetDepTrop_TSOA1         ', 'GCHPchem',
#                          #'BudgetWetDepTrop_TSOA0         ', 'GCHPchem',
#                          #'BudgetWetDepTrop_ASOG3         ', 'GCHPchem',
#                          #'BudgetWetDepTrop_ASOG2         ', 'GCHPchem',
#                          #'BudgetWetDepTrop_ASOG1         ', 'GCHPchem',
#                          #'BudgetWetDepTrop_ASOAN         ', 'GCHPchem',
#                          #'BudgetWetDepTrop_ASOA3         ', 'GCHPchem',
#                          #'BudgetWetDepTrop_ASOA2         ', 'GCHPchem',
#                          #'BudgetWetDepTrop_ASOA1         ', 'GCHPchem',
#                          'BudgetWetDepFull_SOAS          ', 'GCHPchem',
#                          'BudgetWetDepFull_SOAIE         ', 'GCHPchem',
#                          'BudgetWetDepFull_SOAGX         ', 'GCHPchem',
#                          'BudgetWetDepFull_SO4s          ', 'GCHPchem',
#                          'BudgetWetDepFull_SO4           ', 'GCHPchem',
#                          'BudgetWetDepFull_SO2           ', 'GCHPchem',
#                          'BudgetWetDepFull_SALCCL        ', 'GCHPchem',
#                          'BudgetWetDepFull_SALCAL        ', 'GCHPchem',
#                          'BudgetWetDepFull_SALC          ', 'GCHPchem',
#                          'BudgetWetDepFull_SALACL        ', 'GCHPchem',
#                          'BudgetWetDepFull_SALAAL        ', 'GCHPchem',
#                          'BudgetWetDepFull_SALA          ', 'GCHPchem',
#                          'BudgetWetDepFull_RP            ', 'GCHPchem',
#                          'BudgetWetDepFull_RIPD          ', 'GCHPchem',
#                          'BudgetWetDepFull_RIPC          ', 'GCHPchem',
#                          'BudgetWetDepFull_RIPB          ', 'GCHPchem',
#                          'BudgetWetDepFull_RIPA          ', 'GCHPchem',
#                          'BudgetWetDepFull_RB3P          ', 'GCHPchem',
#                          'BudgetWetDepFull_RA3P          ', 'GCHPchem',
#                          'BudgetWetDepFull_R4P           ', 'GCHPchem',
#                          'BudgetWetDepFull_R4N2          ', 'GCHPchem',
#                          'BudgetWetDepFull_PYAC          ', 'GCHPchem',
#                          'BudgetWetDepFull_PRPN          ', 'GCHPchem',
#                          'BudgetWetDepFull_PRPE          ', 'GCHPchem',
#                          'BudgetWetDepFull_PROPNN        ', 'GCHPchem',
#                          'BudgetWetDepFull_PPN           ', 'GCHPchem',
#                          'BudgetWetDepFull_PP            ', 'GCHPchem',
#                          'BudgetWetDepFull_pFe           ', 'GCHPchem',
#                          'BudgetWetDepFull_PAN           ', 'GCHPchem',
#                          'BudgetWetDepFull_OCPO          ', 'GCHPchem',
#                          'BudgetWetDepFull_OCPI          ', 'GCHPchem',
#                          'BudgetWetDepFull_NITs          ', 'GCHPchem',
#                          'BudgetWetDepFull_NIT           ', 'GCHPchem',
#                          'BudgetWetDepFull_NH4           ', 'GCHPchem',
#                          'BudgetWetDepFull_NH3           ', 'GCHPchem',
#                          'BudgetWetDepFull_MVKPC         ', 'GCHPchem',
#                          'BudgetWetDepFull_MVKN          ', 'GCHPchem',
#                          'BudgetWetDepFull_MVKHP         ', 'GCHPchem',
#                          'BudgetWetDepFull_MVKHCB        ', 'GCHPchem',
#                          'BudgetWetDepFull_MVKHC         ', 'GCHPchem',
#                          'BudgetWetDepFull_MVKDH         ', 'GCHPchem',
#                          'BudgetWetDepFull_MVK           ', 'GCHPchem',
#                          'BudgetWetDepFull_MTPO          ', 'GCHPchem',
#                          'BudgetWetDepFull_MTPA          ', 'GCHPchem',
#                          'BudgetWetDepFull_MSA           ', 'GCHPchem',
#                          'BudgetWetDepFull_MPN           ', 'GCHPchem',
#                          'BudgetWetDepFull_MPAN          ', 'GCHPchem',
#                          'BudgetWetDepFull_MP            ', 'GCHPchem',
#                          'BudgetWetDepFull_MONITU        ', 'GCHPchem',
#                          'BudgetWetDepFull_MONITS        ', 'GCHPchem',
#                          'BudgetWetDepFull_MONITA        ', 'GCHPchem',
#                          'BudgetWetDepFull_MOH           ', 'GCHPchem',
#                          'BudgetWetDepFull_MGLY          ', 'GCHPchem',
#                          'BudgetWetDepFull_MEK           ', 'GCHPchem',
#                          'BudgetWetDepFull_MCRHP         ', 'GCHPchem',
#                          'BudgetWetDepFull_MCRHNB        ', 'GCHPchem',
#                          'BudgetWetDepFull_MCRHN         ', 'GCHPchem',
#                          'BudgetWetDepFull_MCRENOL       ', 'GCHPchem',
#                          'BudgetWetDepFull_MCRDH         ', 'GCHPchem',
#                          'BudgetWetDepFull_MAP           ', 'GCHPchem',
#                          'BudgetWetDepFull_MACR1OOH      ', 'GCHPchem',
#                          'BudgetWetDepFull_LVOCOA        ', 'GCHPchem',
#                          'BudgetWetDepFull_LVOC          ', 'GCHPchem',
#                          'BudgetWetDepFull_LIMO          ', 'GCHPchem',
#                          'BudgetWetDepFull_ITHN          ', 'GCHPchem',
#                          'BudgetWetDepFull_ITCN          ', 'GCHPchem',
#                          'BudgetWetDepFull_ISALC         ', 'GCHPchem',
#                          'BudgetWetDepFull_ISALA         ', 'GCHPchem',
#                          'BudgetWetDepFull_IONO2         ', 'GCHPchem',
#                          'BudgetWetDepFull_IONO          ', 'GCHPchem',
#                          'BudgetWetDepFull_IONITA        ', 'GCHPchem',
#                          'BudgetWetDepFull_INPD          ', 'GCHPchem',
#                          'BudgetWetDepFull_INPB          ', 'GCHPchem',
#                          'BudgetWetDepFull_INDIOL        ', 'GCHPchem',
#                          'BudgetWetDepFull_IHN4          ', 'GCHPchem',
#                          'BudgetWetDepFull_IHN3          ', 'GCHPchem',
#                          'BudgetWetDepFull_IHN2          ', 'GCHPchem',
#                          'BudgetWetDepFull_IHN1          ', 'GCHPchem',
#                          'BudgetWetDepFull_IEPOXD        ', 'GCHPchem',
#                          'BudgetWetDepFull_IEPOXB        ', 'GCHPchem',
#                          'BudgetWetDepFull_IEPOXA        ', 'GCHPchem',
#                          'BudgetWetDepFull_IDN           ', 'GCHPchem',
#                          'BudgetWetDepFull_IDHPE         ', 'GCHPchem',
#                          'BudgetWetDepFull_IDHDP         ', 'GCHPchem',
#                          'BudgetWetDepFull_IDCHP         ', 'GCHPchem',
#                          'BudgetWetDepFull_ICPDH         ', 'GCHPchem',
#                          'BudgetWetDepFull_ICN           ', 'GCHPchem',
#                          'BudgetWetDepFull_ICl           ', 'GCHPchem',
#                          'BudgetWetDepFull_ICHE          ', 'GCHPchem',
#                          'BudgetWetDepFull_IBr           ', 'GCHPchem',
#                          'BudgetWetDepFull_I2O4          ', 'GCHPchem',
#                          'BudgetWetDepFull_I2O3          ', 'GCHPchem',
#                          'BudgetWetDepFull_I2O2          ', 'GCHPchem',
#                          'BudgetWetDepFull_I2            ', 'GCHPchem',
#                          'BudgetWetDepFull_HPETHNL       ', 'GCHPchem',
#                          'BudgetWetDepFull_HONIT         ', 'GCHPchem',
#                          'BudgetWetDepFull_HOI           ', 'GCHPchem',
#                          'BudgetWetDepFull_HOCl          ', 'GCHPchem',
#                          'BudgetWetDepFull_HOBr          ', 'GCHPchem',
#                          'BudgetWetDepFull_HNO3          ', 'GCHPchem',
#                          'BudgetWetDepFull_HMS           ', 'GCHPchem',
#                          'BudgetWetDepFull_HMML          ', 'GCHPchem',
#                          'BudgetWetDepFull_HMHP          ', 'GCHPchem',
#                          'BudgetWetDepFull_HI            ', 'GCHPchem',
#                          'BudgetWetDepFull_HCOOH         ', 'GCHPchem',
#                          'BudgetWetDepFull_HCl           ', 'GCHPchem',
#                          'BudgetWetDepFull_HC5A          ', 'GCHPchem',
#                          'BudgetWetDepFull_HBr           ', 'GCHPchem',
#                          'BudgetWetDepFull_HAC           ', 'GCHPchem',
#                          'BudgetWetDepFull_H2O2          ', 'GCHPchem',
#                          'BudgetWetDepFull_GLYX          ', 'GCHPchem',
#                          'BudgetWetDepFull_GLYC          ', 'GCHPchem',
#                          'BudgetWetDepFull_ETP           ', 'GCHPchem',
#                          'BudgetWetDepFull_ETHP          ', 'GCHPchem',
#                          'BudgetWetDepFull_ETHN          ', 'GCHPchem',
#                          'BudgetWetDepFull_ETHLN         ', 'GCHPchem',
#                          'BudgetWetDepFull_EOH           ', 'GCHPchem',
#                          'BudgetWetDepFull_DST4          ', 'GCHPchem',
#                          'BudgetWetDepFull_DST3          ', 'GCHPchem',
#                          'BudgetWetDepFull_DST2          ', 'GCHPchem',
#                          'BudgetWetDepFull_DST1          ', 'GCHPchem',
#                          'BudgetWetDepFull_CH2O          ', 'GCHPchem',
#                          'BudgetWetDepFull_BrSALC        ', 'GCHPchem',
#                          'BudgetWetDepFull_BrSALA        ', 'GCHPchem',
#                          'BudgetWetDepFull_BrCl          ', 'GCHPchem',
#                          'BudgetWetDepFull_Br2           ', 'GCHPchem',
#                          'BudgetWetDepFull_BCPO          ', 'GCHPchem',
#                          'BudgetWetDepFull_BCPI          ', 'GCHPchem',
#                          'BudgetWetDepFull_ATOOH         ', 'GCHPchem',
#                          'BudgetWetDepFull_ALD2          ', 'GCHPchem',
#                          'BudgetWetDepFull_AERI          ', 'GCHPchem',
#                          'BudgetWetDepFull_ACTA          ', 'GCHPchem',
#                          #'BudgetWetDepFull_TSOG3         ', 'GCHPchem',
#                          #'BudgetWetDepFull_TSOG2         ', 'GCHPchem',
#                          #'BudgetWetDepFull_TSOG1         ', 'GCHPchem',
#                          #'BudgetWetDepFull_TSOG0         ', 'GCHPchem',
#                          #'BudgetWetDepFull_TSOA3         ', 'GCHPchem',
#                          #'BudgetWetDepFull_TSOA2         ', 'GCHPchem',
#                          #'BudgetWetDepFull_TSOA1         ', 'GCHPchem',
#                          #'BudgetWetDepFull_TSOA0         ', 'GCHPchem',
#                          #'BudgetWetDepFull_ASOG3         ', 'GCHPchem',
#                          #'BudgetWetDepFull_ASOG2         ', 'GCHPchem',
#                          #'BudgetWetDepFull_ASOG1         ', 'GCHPchem',
#                          #'BudgetWetDepFull_ASOAN         ', 'GCHPchem',
#                          #'BudgetWetDepFull_ASOA3         ', 'GCHPchem',
#                          #'BudgetWetDepFull_ASOA2         ', 'GCHPchem',
#                          #'BudgetWetDepFull_ASOA1         ', 'GCHPchem',
#                          'BudgetChemistryPBL_XYLE        ', 'GCHPchem',
#                          'BudgetChemistryPBL_TOLU        ', 'GCHPchem',
#                          'BudgetChemistryPBL_SOAS        ', 'GCHPchem',
#                          'BudgetChemistryPBL_SOAP        ', 'GCHPchem',
#                          'BudgetChemistryPBL_SOAIE       ', 'GCHPchem',
#                          'BudgetChemistryPBL_SOAGX       ', 'GCHPchem',
#                          'BudgetChemistryPBL_SO4s        ', 'GCHPchem',
#                          'BudgetChemistryPBL_SO4         ', 'GCHPchem',
#                          'BudgetChemistryPBL_SO2         ', 'GCHPchem',
#                          'BudgetChemistryPBL_SALCCL      ', 'GCHPchem',
#                          'BudgetChemistryPBL_SALCAL      ', 'GCHPchem',
#                          'BudgetChemistryPBL_SALC        ', 'GCHPchem',
#                          'BudgetChemistryPBL_SALACL      ', 'GCHPchem',
#                          'BudgetChemistryPBL_SALAAL      ', 'GCHPchem',
#                          'BudgetChemistryPBL_SALA        ', 'GCHPchem',
#                          'BudgetChemistryPBL_RP          ', 'GCHPchem',
#                          'BudgetChemistryPBL_RIPD        ', 'GCHPchem',
#                          'BudgetChemistryPBL_RIPC        ', 'GCHPchem',
#                          'BudgetChemistryPBL_RIPB        ', 'GCHPchem',
#                          'BudgetChemistryPBL_RIPA        ', 'GCHPchem',
#                          'BudgetChemistryPBL_RCHO        ', 'GCHPchem',
#                          'BudgetChemistryPBL_RB3P        ', 'GCHPchem',
#                          'BudgetChemistryPBL_RA3P        ', 'GCHPchem',
#                          'BudgetChemistryPBL_R4P         ', 'GCHPchem',
#                          'BudgetChemistryPBL_R4N2        ', 'GCHPchem',
#                          'BudgetChemistryPBL_PYAC        ', 'GCHPchem',
#                          'BudgetChemistryPBL_PRPN        ', 'GCHPchem',
#                          'BudgetChemistryPBL_PRPE        ', 'GCHPchem',
#                          'BudgetChemistryPBL_PROPNN      ', 'GCHPchem',
#                          'BudgetChemistryPBL_PPN         ', 'GCHPchem',
#                          'BudgetChemistryPBL_PP          ', 'GCHPchem',
#                          'BudgetChemistryPBL_PIP         ', 'GCHPchem',
#                          'BudgetChemistryPBL_pFe         ', 'GCHPchem',
#                          'BudgetChemistryPBL_PAN         ', 'GCHPchem',
#                          'BudgetChemistryPBL_OIO         ', 'GCHPchem',
#                          'BudgetChemistryPBL_OCS         ', 'GCHPchem',
#                          'BudgetChemistryPBL_OCPO        ', 'GCHPchem',
#                          'BudgetChemistryPBL_OCPI        ', 'GCHPchem',
#                          'BudgetChemistryPBL_OClO        ', 'GCHPchem',
#                          'BudgetChemistryPBL_O3          ', 'GCHPchem',
#                          'BudgetChemistryPBL_NPRNO3      ', 'GCHPchem',
#                          'BudgetChemistryPBL_NO3         ', 'GCHPchem',
#                          'BudgetChemistryPBL_NO2         ', 'GCHPchem',
#                          'BudgetChemistryPBL_NO          ', 'GCHPchem',
#                          'BudgetChemistryPBL_NITs        ', 'GCHPchem',
#                          'BudgetChemistryPBL_NIT         ', 'GCHPchem',
#                          'BudgetChemistryPBL_NH4         ', 'GCHPchem',
#                          'BudgetChemistryPBL_NH3         ', 'GCHPchem',
#                          'BudgetChemistryPBL_N2O5        ', 'GCHPchem',
#                          'BudgetChemistryPBL_N2O         ', 'GCHPchem',
#                          'BudgetChemistryPBL_MVKPC       ', 'GCHPchem',
#                          'BudgetChemistryPBL_MVKN        ', 'GCHPchem',
#                          'BudgetChemistryPBL_MVKHP       ', 'GCHPchem',
#                          'BudgetChemistryPBL_MVKHCB      ', 'GCHPchem',
#                          'BudgetChemistryPBL_MVKHC       ', 'GCHPchem',
#                          'BudgetChemistryPBL_MVKDH       ', 'GCHPchem',
#                          'BudgetChemistryPBL_MVK         ', 'GCHPchem',
#                          'BudgetChemistryPBL_MTPO        ', 'GCHPchem',
#                          'BudgetChemistryPBL_MTPA        ', 'GCHPchem',
#                          'BudgetChemistryPBL_MSA         ', 'GCHPchem',
#                          'BudgetChemistryPBL_MPN         ', 'GCHPchem',
#                          'BudgetChemistryPBL_MPAN        ', 'GCHPchem',
#                          'BudgetChemistryPBL_MP          ', 'GCHPchem',
#                          'BudgetChemistryPBL_MONITU      ', 'GCHPchem',
#                          'BudgetChemistryPBL_MONITS      ', 'GCHPchem',
#                          'BudgetChemistryPBL_MONITA      ', 'GCHPchem',
#                          'BudgetChemistryPBL_MOH         ', 'GCHPchem',
#                          'BudgetChemistryPBL_MGLY        ', 'GCHPchem',
#                          'BudgetChemistryPBL_MENO3       ', 'GCHPchem',
#                          'BudgetChemistryPBL_MEK         ', 'GCHPchem',
#                          'BudgetChemistryPBL_MCRHP       ', 'GCHPchem',
#                          'BudgetChemistryPBL_MCRHNB      ', 'GCHPchem',
#                          'BudgetChemistryPBL_MCRHN       ', 'GCHPchem',
#                          'BudgetChemistryPBL_MCRENOL     ', 'GCHPchem',
#                          'BudgetChemistryPBL_MCRDH       ', 'GCHPchem',
#                          'BudgetChemistryPBL_MAP         ', 'GCHPchem',
#                          'BudgetChemistryPBL_MACR1OOH    ', 'GCHPchem',
#                          'BudgetChemistryPBL_MACR        ', 'GCHPchem',
#                          'BudgetChemistryPBL_LVOCOA      ', 'GCHPchem',
#                          'BudgetChemistryPBL_LVOC        ', 'GCHPchem',
#                          'BudgetChemistryPBL_LIMO        ', 'GCHPchem',
#                          'BudgetChemistryPBL_ITHN        ', 'GCHPchem',
#                          'BudgetChemistryPBL_ITCN        ', 'GCHPchem',
#                          'BudgetChemistryPBL_ISOP        ', 'GCHPchem',
#                          'BudgetChemistryPBL_ISALC       ', 'GCHPchem',
#                          'BudgetChemistryPBL_ISALA       ', 'GCHPchem',
#                          'BudgetChemistryPBL_IPRNO3      ', 'GCHPchem',
#                          'BudgetChemistryPBL_IONO2       ', 'GCHPchem',
#                          'BudgetChemistryPBL_IONO        ', 'GCHPchem',
#                          'BudgetChemistryPBL_IONITA      ', 'GCHPchem',
#                          'BudgetChemistryPBL_IO          ', 'GCHPchem',
#                          'BudgetChemistryPBL_INPD        ', 'GCHPchem',
#                          'BudgetChemistryPBL_INPB        ', 'GCHPchem',
#                          'BudgetChemistryPBL_INO         ', 'GCHPchem',
#                          'BudgetChemistryPBL_INDIOL      ', 'GCHPchem',
[...]
                          'WetLossConvFrac_SALAAL     ', 'GCHPchem',
                          'WetLossConvFrac_SALA       ', 'GCHPchem',
                          'WetLossConvFrac_RP         ', 'GCHPchem',
                          'WetLossConvFrac_RIPD       ', 'GCHPchem',
                          'WetLossConvFrac_RIPC       ', 'GCHPchem',
                          'WetLossConvFrac_RIPB       ', 'GCHPchem',
                          'WetLossConvFrac_RIPA       ', 'GCHPchem',
                          'WetLossConvFrac_RB3P       ', 'GCHPchem',
                          'WetLossConvFrac_RA3P       ', 'GCHPchem',
                          'WetLossConvFrac_R4P        ', 'GCHPchem',
                          'WetLossConvFrac_R4N2       ', 'GCHPchem',
                          'WetLossConvFrac_PYAC       ', 'GCHPchem',
                          'WetLossConvFrac_PRPN       ', 'GCHPchem',
                          'WetLossConvFrac_PRPE       ', 'GCHPchem',
                          'WetLossConvFrac_PROPNN     ', 'GCHPchem',
                          'WetLossConvFrac_PPN        ', 'GCHPchem',
                          'WetLossConvFrac_PP         ', 'GCHPchem',
                          'WetLossConvFrac_pFe        ', 'GCHPchem',
                          'WetLossConvFrac_PAN        ', 'GCHPchem',
                          'WetLossConvFrac_OCPO       ', 'GCHPchem',
                          'WetLossConvFrac_OCPI       ', 'GCHPchem',
                          'WetLossConvFrac_NITs       ', 'GCHPchem',
                          'WetLossConvFrac_NIT        ', 'GCHPchem',
                          'WetLossConvFrac_NH4        ', 'GCHPchem',
                          'WetLossConvFrac_NH3        ', 'GCHPchem',
                          'WetLossConvFrac_MVKPC      ', 'GCHPchem',
                          'WetLossConvFrac_MVKN       ', 'GCHPchem',
                          'WetLossConvFrac_MVKHP      ', 'GCHPchem',
                          'WetLossConvFrac_MVKHCB     ', 'GCHPchem',
                          'WetLossConvFrac_MVKHC      ', 'GCHPchem',
                          'WetLossConvFrac_MVKDH      ', 'GCHPchem',
                          'WetLossConvFrac_MVK        ', 'GCHPchem',
                          'WetLossConvFrac_MTPO       ', 'GCHPchem',
                          'WetLossConvFrac_MTPA       ', 'GCHPchem',
                          'WetLossConvFrac_MSA        ', 'GCHPchem',
                          'WetLossConvFrac_MPN        ', 'GCHPchem',
                          'WetLossConvFrac_MPAN       ', 'GCHPchem',
                          'WetLossConvFrac_MP         ', 'GCHPchem',
                          'WetLossConvFrac_MONITU     ', 'GCHPchem',
                          'WetLossConvFrac_MONITS     ', 'GCHPchem',
                          'WetLossConvFrac_MONITA     ', 'GCHPchem',
                          'WetLossConvFrac_MOH        ', 'GCHPchem',
                          'WetLossConvFrac_MGLY       ', 'GCHPchem',
                          'WetLossConvFrac_MEK        ', 'GCHPchem',
                          'WetLossConvFrac_MCRHP      ', 'GCHPchem',
                          'WetLossConvFrac_MCRHNB     ', 'GCHPchem',
                          'WetLossConvFrac_MCRHN      ', 'GCHPchem',
                          'WetLossConvFrac_MCRENOL    ', 'GCHPchem',
                          'WetLossConvFrac_MCRDH      ', 'GCHPchem',
                          'WetLossConvFrac_MAP        ', 'GCHPchem',
                          'WetLossConvFrac_MACR1OOH   ', 'GCHPchem',
                          'WetLossConvFrac_LVOCOA     ', 'GCHPchem',
                          'WetLossConvFrac_LVOC       ', 'GCHPchem',
                          'WetLossConvFrac_LIMO       ', 'GCHPchem',
                          'WetLossConvFrac_ITHN       ', 'GCHPchem',
                          'WetLossConvFrac_ITCN       ', 'GCHPchem',
                          'WetLossConvFrac_ISALC      ', 'GCHPchem',
                          'WetLossConvFrac_ISALA      ', 'GCHPchem',
                          'WetLossConvFrac_IONO2      ', 'GCHPchem',
                          'WetLossConvFrac_IONO       ', 'GCHPchem',
                          'WetLossConvFrac_IONITA     ', 'GCHPchem',
                          'WetLossConvFrac_INPD       ', 'GCHPchem',
                          'WetLossConvFrac_INPB       ', 'GCHPchem',
                          'WetLossConvFrac_INDIOL     ', 'GCHPchem',
                          'WetLossConvFrac_IHN4       ', 'GCHPchem',
                          'WetLossConvFrac_IHN3       ', 'GCHPchem',
                          'WetLossConvFrac_IHN2       ', 'GCHPchem',
                          'WetLossConvFrac_IHN1       ', 'GCHPchem',
                          'WetLossConvFrac_IEPOXD     ', 'GCHPchem',
                          'WetLossConvFrac_IEPOXB     ', 'GCHPchem',
                          'WetLossConvFrac_IEPOXA     ', 'GCHPchem',
                          'WetLossConvFrac_IDN        ', 'GCHPchem',
                          'WetLossConvFrac_IDHPE      ', 'GCHPchem',
                          'WetLossConvFrac_IDHDP      ', 'GCHPchem',
                          'WetLossConvFrac_IDCHP      ', 'GCHPchem',
                          'WetLossConvFrac_ICPDH      ', 'GCHPchem',
                          'WetLossConvFrac_ICN        ', 'GCHPchem',
                          'WetLossConvFrac_ICl        ', 'GCHPchem',
                          'WetLossConvFrac_ICHE       ', 'GCHPchem',
                          'WetLossConvFrac_IBr        ', 'GCHPchem',
                          'WetLossConvFrac_I2O4       ', 'GCHPchem',
                          'WetLossConvFrac_I2O3       ', 'GCHPchem',
                          'WetLossConvFrac_I2O2       ', 'GCHPchem',
                          'WetLossConvFrac_I2         ', 'GCHPchem',
                          'WetLossConvFrac_HPETHNL    ', 'GCHPchem',
                          'WetLossConvFrac_HONIT      ', 'GCHPchem',
                          'WetLossConvFrac_HOI        ', 'GCHPchem',
                          'WetLossConvFrac_HOCl       ', 'GCHPchem',
                          'WetLossConvFrac_HOBr       ', 'GCHPchem',
                          'WetLossConvFrac_HNO3       ', 'GCHPchem',
                          'WetLossConvFrac_HMS        ', 'GCHPchem',
                          'WetLossConvFrac_HMML       ', 'GCHPchem',
                          'WetLossConvFrac_HMHP       ', 'GCHPchem',
                          'WetLossConvFrac_HI         ', 'GCHPchem',
                          'WetLossConvFrac_HCOOH      ', 'GCHPchem',
                          'WetLossConvFrac_HCl        ', 'GCHPchem',
                          'WetLossConvFrac_HC5A       ', 'GCHPchem',
                          'WetLossConvFrac_HBr        ', 'GCHPchem',
                          'WetLossConvFrac_HAC        ', 'GCHPchem',
                          'WetLossConvFrac_H2O2       ', 'GCHPchem',
                          'WetLossConvFrac_GLYX       ', 'GCHPchem',
                          'WetLossConvFrac_GLYC       ', 'GCHPchem',
                          'WetLossConvFrac_ETP        ', 'GCHPchem',
                          'WetLossConvFrac_ETHP       ', 'GCHPchem',
                          'WetLossConvFrac_ETHN       ', 'GCHPchem',
                          'WetLossConvFrac_ETHLN      ', 'GCHPchem',
                          'WetLossConvFrac_EOH        ', 'GCHPchem',
                          'WetLossConvFrac_DST4       ', 'GCHPchem',
                          'WetLossConvFrac_DST3       ', 'GCHPchem',
                          'WetLossConvFrac_DST2       ', 'GCHPchem',
                          'WetLossConvFrac_DST1       ', 'GCHPchem',
                          'WetLossConvFrac_CH2O       ', 'GCHPchem',
                          'WetLossConvFrac_BrSALC     ', 'GCHPchem',
                          'WetLossConvFrac_BrSALA     ', 'GCHPchem',
                          'WetLossConvFrac_BrCl       ', 'GCHPchem',
                          'WetLossConvFrac_Br2        ', 'GCHPchem',
                          'WetLossConvFrac_BCPO       ', 'GCHPchem',
                          'WetLossConvFrac_BCPI       ', 'GCHPchem',
                          'WetLossConvFrac_ATOOH      ', 'GCHPchem',
                          'WetLossConvFrac_ALD2       ', 'GCHPchem',
                          'WetLossConvFrac_AERI       ', 'GCHPchem',
                          'WetLossConvFrac_ACTA       ', 'GCHPchem',
                          #'WetLossConvFrac_TSOG3      ', 'GCHPchem',
                          #'WetLossConvFrac_TSOG2      ', 'GCHPchem',
                          #'WetLossConvFrac_TSOG1      ', 'GCHPchem',
                          #'WetLossConvFrac_TSOG0      ', 'GCHPchem',
                          #'WetLossConvFrac_TSOA3      ', 'GCHPchem',
                          #'WetLossConvFrac_TSOA2      ', 'GCHPchem',
                          #'WetLossConvFrac_TSOA1      ', 'GCHPchem',
                          #'WetLossConvFrac_TSOA0      ', 'GCHPchem',
                          #'WetLossConvFrac_ASOG3      ', 'GCHPchem',
                          #'WetLossConvFrac_ASOG2      ', 'GCHPchem',
                          #'WetLossConvFrac_ASOG1      ', 'GCHPchem',
                          #'WetLossConvFrac_ASOAN      ', 'GCHPchem',
                          #'WetLossConvFrac_ASOA3      ', 'GCHPchem',
                          #'WetLossConvFrac_ASOA2      ', 'GCHPchem',
                          #'WetLossConvFrac_ASOA1      ', 'GCHPchem',
::
#=============================================================================
# %%%%% THE WetLossLS COLLECTION %%%%%
#
# Loss of soluble species in large-scale wetdep (i.e. rainout and washout)
#
# Available for all simulations that have soluble species
#=============================================================================
  WetLossLS.template:       '%y4%m2%d2_%h2%n2z.nc4',
  WetLossLS.format:         'CFIO',
  WetLossLS.timestampStart: .true.
  WetLossLS.monthly:        1
  WetLossLS.frequency:      010000
  WetLossLS.duration:       010000
  WetLossLS.mode:           'time-averaged'
  WetLossLS.fields:       'WetLossLS_SOAS           ', 'GCHPchem',
                          #'WetLossLS_TSOG3          ', 'GCHPchem',
                          #'WetLossLS_TSOG2          ', 'GCHPchem',
                          #'WetLossLS_TSOG1          ', 'GCHPchem',
                          #'WetLossLS_TSOG0          ', 'GCHPchem',
                          #'WetLossLS_TSOA3          ', 'GCHPchem',
                          #'WetLossLS_TSOA2          ', 'GCHPchem',
                          #'WetLossLS_TSOA1          ', 'GCHPchem',
                          #'WetLossLS_TSOA0          ', 'GCHPchem',
                          'WetLossLS_SOAIE          ', 'GCHPchem',
                          'WetLossLS_SOAGX          ', 'GCHPchem',
                          'WetLossLS_SO4s           ', 'GCHPchem',
                          'WetLossLS_SO4            ', 'GCHPchem',
                          'WetLossLS_SO2            ', 'GCHPchem',
                          'WetLossLS_SALCCL         ', 'GCHPchem',
                          'WetLossLS_SALCAL         ', 'GCHPchem',
                          'WetLossLS_SALC           ', 'GCHPchem',
                          'WetLossLS_SALACL         ', 'GCHPchem',
                          'WetLossLS_SALAAL         ', 'GCHPchem',
                          'WetLossLS_SALA           ', 'GCHPchem',
                          'WetLossLS_RP             ', 'GCHPchem',
                          'WetLossLS_RIPD           ', 'GCHPchem',
                          'WetLossLS_RIPC           ', 'GCHPchem',
                          'WetLossLS_RIPB           ', 'GCHPchem',
                          'WetLossLS_RIPA           ', 'GCHPchem',
                          'WetLossLS_RB3P           ', 'GCHPchem',
                          'WetLossLS_RA3P           ', 'GCHPchem',
                          'WetLossLS_R4P            ', 'GCHPchem',
                          'WetLossLS_R4N2           ', 'GCHPchem',
                          'WetLossLS_PYAC           ', 'GCHPchem',
                          'WetLossLS_PRPN           ', 'GCHPchem',
                          'WetLossLS_PRPE           ', 'GCHPchem',
                          'WetLossLS_PROPNN         ', 'GCHPchem',
                          'WetLossLS_PPN            ', 'GCHPchem',
                          'WetLossLS_PP             ', 'GCHPchem',
                          'WetLossLS_pFe            ', 'GCHPchem',
                          'WetLossLS_PAN            ', 'GCHPchem',
                          'WetLossLS_OCPO           ', 'GCHPchem',
                          'WetLossLS_OCPI           ', 'GCHPchem',
                          'WetLossLS_NITs           ', 'GCHPchem',
                          'WetLossLS_NIT            ', 'GCHPchem',
                          'WetLossLS_NH4            ', 'GCHPchem',
                          'WetLossLS_NH3            ', 'GCHPchem',
                          'WetLossLS_MVKPC          ', 'GCHPchem',
                          'WetLossLS_MVKN           ', 'GCHPchem',
                          'WetLossLS_MVKHP          ', 'GCHPchem',
                          'WetLossLS_MVKHCB         ', 'GCHPchem',
                          'WetLossLS_MVKHC          ', 'GCHPchem',
                          'WetLossLS_MVKDH          ', 'GCHPchem',
                          'WetLossLS_MVK            ', 'GCHPchem',
                          'WetLossLS_MTPO           ', 'GCHPchem',
                          'WetLossLS_MTPA           ', 'GCHPchem',
                          'WetLossLS_MSA            ', 'GCHPchem',
                          'WetLossLS_MPN            ', 'GCHPchem',
                          'WetLossLS_MPAN           ', 'GCHPchem',
                          'WetLossLS_MP             ', 'GCHPchem',
                          'WetLossLS_MONITU         ', 'GCHPchem',
                          'WetLossLS_MONITS         ', 'GCHPchem',
                          'WetLossLS_MONITA         ', 'GCHPchem',
                          'WetLossLS_MOH            ', 'GCHPchem',
                          'WetLossLS_MGLY           ', 'GCHPchem',
                          'WetLossLS_MEK            ', 'GCHPchem',
                          'WetLossLS_MCRHP          ', 'GCHPchem',
                          'WetLossLS_MCRHNB         ', 'GCHPchem',
                          'WetLossLS_MCRHN          ', 'GCHPchem',
                          'WetLossLS_MCRENOL        ', 'GCHPchem',
                          'WetLossLS_MCRDH          ', 'GCHPchem',
                          'WetLossLS_MAP            ', 'GCHPchem',
                          'WetLossLS_MACR1OOH       ', 'GCHPchem',
                          'WetLossLS_LVOCOA         ', 'GCHPchem',
                          'WetLossLS_LVOC           ', 'GCHPchem',
                          'WetLossLS_LIMO           ', 'GCHPchem',
                          'WetLossLS_ITHN           ', 'GCHPchem',
                          'WetLossLS_ITCN           ', 'GCHPchem',
                          'WetLossLS_ISALC          ', 'GCHPchem',
                          'WetLossLS_ISALA          ', 'GCHPchem',
                          'WetLossLS_IONO2          ', 'GCHPchem',
                          'WetLossLS_IONO           ', 'GCHPchem',
                          'WetLossLS_IONITA         ', 'GCHPchem',
                          'WetLossLS_INPD           ', 'GCHPchem',
                          'WetLossLS_INPB           ', 'GCHPchem',
                          'WetLossLS_INDIOL         ', 'GCHPchem',
                          'WetLossLS_IHN4           ', 'GCHPchem',
                          'WetLossLS_IHN3           ', 'GCHPchem',
                          'WetLossLS_IHN2           ', 'GCHPchem',
                          'WetLossLS_IHN1           ', 'GCHPchem',
                          'WetLossLS_IEPOXD         ', 'GCHPchem',
                          'WetLossLS_IEPOXB         ', 'GCHPchem',
                          'WetLossLS_IEPOXA         ', 'GCHPchem',
                          'WetLossLS_IDN            ', 'GCHPchem',
                          'WetLossLS_IDHPE          ', 'GCHPchem',
                          'WetLossLS_IDHDP          ', 'GCHPchem',
                          'WetLossLS_IDCHP          ', 'GCHPchem',
                          'WetLossLS_ICPDH          ', 'GCHPchem',
                          'WetLossLS_ICN            ', 'GCHPchem',
                          'WetLossLS_ICl            ', 'GCHPchem',
                          'WetLossLS_ICHE           ', 'GCHPchem',
                          'WetLossLS_IBr            ', 'GCHPchem',
                          'WetLossLS_I2O4           ', 'GCHPchem',
                          'WetLossLS_I2O3           ', 'GCHPchem',
                          'WetLossLS_I2O2           ', 'GCHPchem',
                          'WetLossLS_I2             ', 'GCHPchem',
                          'WetLossLS_HPETHNL        ', 'GCHPchem',
                          'WetLossLS_HONIT          ', 'GCHPchem',
                          'WetLossLS_HOI            ', 'GCHPchem',
                          'WetLossLS_HOCl           ', 'GCHPchem',
                          'WetLossLS_HOBr           ', 'GCHPchem',
                          'WetLossLS_HNO3           ', 'GCHPchem',
                          'WetLossLS_HMS            ', 'GCHPchem',
                          'WetLossLS_HMML           ', 'GCHPchem',
                          'WetLossLS_HMHP           ', 'GCHPchem',
                          'WetLossLS_HI             ', 'GCHPchem',
                          'WetLossLS_HCOOH          ', 'GCHPchem',
                          'WetLossLS_HCl            ', 'GCHPchem',
                          'WetLossLS_HC5A           ', 'GCHPchem',
                          'WetLossLS_HBr            ', 'GCHPchem',
                          'WetLossLS_HAC            ', 'GCHPchem',
                          'WetLossLS_H2O2           ', 'GCHPchem',
                          'WetLossLS_GLYX           ', 'GCHPchem',
                          'WetLossLS_GLYC           ', 'GCHPchem',
                          'WetLossLS_ETP            ', 'GCHPchem',
                          'WetLossLS_ETHP           ', 'GCHPchem',
                          'WetLossLS_ETHN           ', 'GCHPchem',
                          'WetLossLS_ETHLN          ', 'GCHPchem',
                          'WetLossLS_EOH            ', 'GCHPchem',
                          'WetLossLS_DST4           ', 'GCHPchem',
                          'WetLossLS_DST3           ', 'GCHPchem',
                          'WetLossLS_DST2           ', 'GCHPchem',
                          'WetLossLS_DST1           ', 'GCHPchem',
                          'WetLossLS_CH2O           ', 'GCHPchem',
                          'WetLossLS_BrSALC         ', 'GCHPchem',
                          'WetLossLS_BrSALA         ', 'GCHPchem',
                          'WetLossLS_BrCl           ', 'GCHPchem',
                          'WetLossLS_Br2            ', 'GCHPchem',
                          'WetLossLS_BCPO           ', 'GCHPchem',
                          'WetLossLS_BCPI           ', 'GCHPchem',
                          'WetLossLS_ATOOH          ', 'GCHPchem',
                          #'WetLossLS_ASOG3          ', 'GCHPchem',
                          #'WetLossLS_ASOG2          ', 'GCHPchem',
                          #'WetLossLS_ASOG1          ', 'GCHPchem',
                          #'WetLossLS_ASOAN          ', 'GCHPchem',
                          #'WetLossLS_ASOA3          ', 'GCHPchem',
                          #'WetLossLS_ASOA2          ', 'GCHPchem',
                          #'WetLossLS_ASOA1          ', 'GCHPchem',
                          'WetLossLS_ALD2           ', 'GCHPchem',
                          'WetLossLS_AERI           ', 'GCHPchem',
                          'WetLossLS_ACTA           ', 'GCHPchem',
::
