EXPID:  OutputDir/GEOSChem
EXPDSC: GEOS-Chem_devel
CoresPerNode: 6
Allow_Overwrite: .true.
VERSION: 1

#==============================================================================
# Define grid labels
#
# Define output grids different from the native cubed sphere in this section.
# Each diagnostics collection is output on the native resolution global cubed
# sphere grid unless a different grid defined here is set for that collection
# in the collections section of this file.
#
# See the examples below for defining different types of grid at different
# resolutions. See the collections section later on in this file for
# instructions on using an alternative grid for output.
#
# Beware that the online regridding is area-conserving. Only diagnostics
# independent of grid cell area should be output on a custom grid. For more
# information see the HISTORY.rc page at gchp.readthedocs.io/.
#==============================================================================
GRID_LABELS: #PE24x144-CF
             #PC360x181-DC
             #REGIONAL1x1
    ::

    # Example of cubed-sphere grid at c24 resolution
    PE24x144-CF.GRID_TYPE: Cubed-Sphere
    PE24x144-CF.IM_WORLD: 24
    PE24x144-CF.JM_WORLD: 144
    PE24x144-CF.LM: 72

    # Example of lat-lon global grid at 1x1 resolution
    PC360x181-DC.GRID_TYPE: LatLon
    PC360x181-DC.IM_WORLD: 360
    PC360x181-DC.JM_WORLD: 181
    PC360x181-DC.POLE: PC
    PC360x181-DC.DATELINE: DC
    PC360x181-DC.LM: 72

    # Example of lat-lon regional grid at 1x1 resolution
    REGIONAL1x1.GRID_TYPE: LatLon
    REGIONAL1x1.IM_WORLD: 80
    REGIONAL1x1.JM_WORLD: 40
    REGIONAL1x1.POLE: XY
    REGIONAL1x1.DATELINE: XY
    REGIONAL1x1.LON_RANGE:   0 80
    REGIONAL1x1.LAT_RANGE: -30 10
    REGIONAL1x1.LM: 72

#==============================================================================
# Declare collection names
#
# You can disable collections by commenting out with #
#
# WARNING: Some diagnostic collections have a subset of output fields
# commented out by default. Inspect fields of collections you turn on
# before running to ensure you will get the output you intend.
#==============================================================================
COLLECTIONS: @#'DefaultCollection',
             #'AerosolMass',
             #'Aerosols',
             @#'Budget',
             @#'CloudConvFlux',
             @#'ConcAboveSfc',
             @#'ConcAfterChem',
             #'DryDep',
             #'Emissions',
             #'FV3Dynamics',
             #'GCHPctmEnvLevCenter',
             #'GCHPctmEnvLevEdge',
             #'JValues',
             #'Metrics',
             @#'KppDiags',
             @#'KppARDiags',
             @#'LevelEdgeDiags',
             @#'ProdLoss',
             @##'RRTMG',
             @##'DynHeating',
             @##'RxnRates',
             @##'RxnConst',
             #'SpeciesConc',
             @#'StateChm',
             #'StateMet',
             @#'StratBM',
             @##'Tomas',
             @#'UVFlux',
             @#'WetLossConv',
             @#'WetLossLS',
::
#==============================================================================
# Define collections
#
# The rest of this file consists of collection definitions.
# Above collections whose declarations are commented out will be ignored.
# You can skip individual diagnostics by commenting out their names.
#
# WARNING: Frequency, duration, and mode will be over-written with
# settings in setCommonRunSettings.sh. Edit settings in that file. You can execute the
# script to update this file and then inspect results before submitting a
# run. Collection names are hard-coded in that file; if you add more
# collections then you must also add them there for auto-update, or manually
# change settings for the new collection in this file.
#
# NOTES:
#    (1) Template keyword defines suffix of output filename, appended to
#        GCHP.{collection}.
#
#    (2) Frequency keyword sets frequency of data in each output file
#
#    (3) Duration keyword sets frequency of output file
#
#    (4) Mode keyword may be 'time-averaged' or 'instantaneous'
#
#    (5) See the GRID_LABELS sections above for details about output grids
#
#    (6) To output data on a grid other than native res global cubed sphere
#        include the 'grid_label' field. For example,
#
#           SpeciesConc.grid_label:   REGIONAL1x1
#
#    (7) If you are outputting on a lat/lon grid, be sure to specify
#        conservative regridding. Otherwise regridding will be bi-linear.
#
#           SpeciesConc.conservative: 1
#
#    (8) To output a reduced set of levels, use the levels keyword, e.g.:
#
#           SpeciesConc.levels: 1 2 3
#
#==============================================================================

#==============================================================================
# %%%%% THE DefaultCollection COLLECTION %%%%%
#
# Reduced set of output including some species concentrations, met-fields,
# and PM2.5
#
# Available for full-chemistry simulations
#==============================================================================
  DefaultCollection.template:       '%y4%m2%d2_%h2%n2z.nc4',
  DefaultCollection.format:         'CFIO',
  DefaultCollection.timestampStart: .true.
  DefaultCollection.frequency:      240000
  DefaultCollection.duration:       240000
  DefaultCollection.mode:           'time-averaged'
  DefaultCollection.fields:         'SpeciesConcVV_O3     ', 'GCHPchem',
                                    'SpeciesConcVV_NO     ', 'GCHPchem',
                                    'SpeciesConcVV_NO2    ', 'GCHPchem',
                                    'SpeciesConcVV_OH     ', 'GCHPchem',
                                    'SpeciesConcVV_CO     ', 'GCHPchem',
                                    'PM25                 ', 'GCHPchem',
                                    'Met_T                ', 'GCHPchem',
                                    'Met_RH               ', 'GCHPchem',
                                    'Met_PBLH             ', 'GCHPchem',
                                    'Met_AIRDEN           ', 'GCHPchem',
                                    'Met_PMID             ', 'GCHPchem',
                                    'Met_PMIDDRY          ', 'GCHPchem',
                                    'Met_TropHt           ', 'GCHPchem',
                                    'Met_TropP            ', 'GCHPchem',
                                    'Met_BXHEIGHT         ', 'GCHPchem',
                                    'Met_PS1DRY           ', 'GCHPchem',
                                    'Met_PS1WET           ', 'GCHPchem',
::
#==============================================================================
# %%%%% THE Emissions COLLECTION %%%%%
#
# HEMCO emissions by species and category, and inventory emissions
#
# Please note that this collection is output with level definition flipped
# relative to all other GCHP diagnostics. Level index 1 corresponds to
# top-of-atmosphere.
#
# See HEMCO_Diagn.rc for additional config settings
#==============================================================================
  Emissions.template:       '%y4%m2%d2_%h2%n2z.nc4',
  Emissions.format:         'CFIO',
  Emissions.timestampStart: .true.
  Emissions.monthly:        1
  Emissions.frequency:      010000
  Emissions.duration:       010000
  Emissions.mode:           'time-averaged'
  Emissions.fields:       'EmisACET_Total       ', 'GCHPchem',
                          'EmisACET_BioBurn     ', 'GCHPchem',
                          'EmisACET_Biogenic    ', 'GCHPchem',
                          'EmisACET_Ocean       ', 'GCHPchem',
                          'EmisACR_Total        ', 'GCHPchem',
                          'EmisACR_BioBurn      ', 'GCHPchem',
                          'EmisACTA_Total       ', 'GCHPchem',
                          'EmisACTA_BioBurn     ', 'GCHPchem',
                          'EmisALD2_Total       ', 'GCHPchem',
                          'EmisALD2_Anthro      ', 'GCHPchem',
                          'EmisALD2_BioBurn     ', 'GCHPchem',
                          'EmisALD2_Biogenic    ', 'GCHPchem',
                          'EmisALD2_Ocean       ', 'GCHPchem',
                          'EmisALD2_PlantDecay  ', 'GCHPchem',
                          'EmisALD2_Ship        ', 'GCHPchem',
                          'EmisALK4_Total       ', 'GCHPchem',
                          'EmisALK4_Aircraft    ', 'GCHPchem',
                          'EmisALK4_Anthro      ', 'GCHPchem',
                          'EmisALK4_BioBurn     ', 'GCHPchem',
                          'EmisALK4_Ship        ', 'GCHPchem',
                          'EmisALK6_Total       ', 'GCHPchem',
                          'EmisALK6_Anthro      ', 'GCHPchem',
                          'EmisALK6_Ship        ', 'GCHPchem',
                          'EmisBCPI_Total       ', 'GCHPchem',
                          'EmisBCPI_Aircraft    ', 'GCHPchem',
                          'EmisBCPI_Anthro      ', 'GCHPchem',
                          'EmisBCPI_BioBurn     ', 'GCHPchem',
                          'EmisBCPI_Ship        ', 'GCHPchem',
                          'EmisBCPO_Total       ', 'GCHPchem',
                          'EmisBCPO_Anthro      ', 'GCHPchem',
                          'EmisBCPO_BioBurn     ', 'GCHPchem',
                          'EmisBCPO_Ship        ', 'GCHPchem',
                          'EmisBENZ_Total       ', 'GCHPchem',
                          'EmisBENZ_Anthro      ', 'GCHPchem',
                          'EmisBENZ_BioBurn     ', 'GCHPchem',
                          'EmisBENZ_Ship        ', 'GCHPchem',
                          'EmisC2H2_Total       ', 'GCHPchem',
                          'EmisC2H2_Anthro      ', 'GCHPchem',
                          'EmisC2H2_BioBurn     ', 'GCHPchem',
                          'EmisC2H2_Ship        ', 'GCHPchem',
                          'EmisC2H4_Total       ', 'GCHPchem',
                          'EmisC2H4_Anthro      ', 'GCHPchem',
                          'EmisC2H4_BioBurn     ', 'GCHPchem',
                          'EmisC2H4_Biogenic    ', 'GCHPchem',
                          'EmisC2H4_Ship        ', 'GCHPchem',
                          'EmisC2H6_Total       ', 'GCHPchem',
                          'EmisC2H6_Aircraft    ', 'GCHPchem',
                          'EmisC2H6_Anthro      ', 'GCHPchem',
                          'EmisC2H6_BioBurn     ', 'GCHPchem',
                          'EmisC2H6_Ship        ', 'GCHPchem',
                          'EmisC3H8_Total       ', 'GCHPchem',
                          'EmisC3H8_Aircraft    ', 'GCHPchem',
                          'EmisC3H8_Anthro      ', 'GCHPchem',
                          'EmisC3H8_BioBurn     ', 'GCHPchem',
                          'EmisC3H8_Ship        ', 'GCHPchem',
                          'EmisC4H6_Total       ', 'GCHPchem',
                          'EmisC4H6_BioBurn     ', 'GCHPchem',
                          'EmisCH2Br2_Ocean     ', 'GCHPchem',
                          'EmisCH2I2_Ocean      ', 'GCHPchem',
                          'EmisCH2ICl_Ocean     ', 'GCHPchem',
                          'EmisCH2IBr_Ocean     ', 'GCHPchem',
                          'EmisCH2O_Total       ', 'GCHPchem',
                          'EmisCH2O_Aircraft    ', 'GCHPchem',
                          'EmisCH2O_Anthro      ', 'GCHPchem',
                          'EmisCH2O_BioBurn     ', 'GCHPchem',
                          'EmisCH2O_Ship        ', 'GCHPchem',
                          'EmisCH3I_Ocean       ', 'GCHPchem',
                          ####'EmisCH4_Total        ', 'GCHPchem',
                          ####'EmisCH4_Anthro       ', 'GCHPchem',
                          ####'EmisCH4_BioBurn      ', 'GCHPchem',
                          ####'EmisCH4_Ship         ', 'GCHPchem',
                          'EmisCHBr3_Ocean      ', 'GCHPchem',
                          'EmisCO_Total         ', 'GCHPchem',
                          'EmisCO_Aircraft      ', 'GCHPchem',
                          'EmisCO_Anthro        ', 'GCHPchem',
                          'EmisCO_BioBurn       ', 'GCHPchem',
                          'EmisCO_Ship          ', 'GCHPchem',
                          'EmisCO2_Total        ', 'GCHPchem',
                          'EmisCO2_Anthro       ', 'GCHPchem',
                          'EmisCO2_BioBurn      ', 'GCHPchem',
                          'EmisCO2_Ship         ', 'GCHPchem',
                          'EmisDMS_Ocean        ', 'GCHPchem',
                          'EmisDST1_Total       ', 'GCHPchem',
                          'EmisDST1_Anthro      ', 'GCHPchem',
                          'EmisDST1_Natural     ', 'GCHPchem',
                          'EmisDST2_Natural     ', 'GCHPchem',
                          'EmisDST3_Natural     ', 'GCHPchem',
                          'EmisDST4_Natural     ', 'GCHPchem',
                          'EmisEOH_Total        ', 'GCHPchem',
                          'EmisEOH_Anthro       ', 'GCHPchem',
                          'EmisEOH_BioBurn      ', 'GCHPchem',
                          'EmisEOH_Biogenic     ', 'GCHPchem',
                          'EmisEOH_PlantDecay   ', 'GCHPchem',
                          'EmisEOH_Ship         ', 'GCHPchem',
                          'EmisETNO3_Ocean      ', 'GCHPchem',
                          'EmisFURA_Total       ', 'GCHPchem',
                          'EmisFURA_BioBurn     ', 'GCHPchem',
                          'EmisGLYX_Total       ', 'GCHPchem',
                          'EmisGLYX_BioBurn     ', 'GCHPchem',
                          'EmisH2O_Aircraft     ', 'GCHPchem',
                          'EmisHCl_Total        ', 'GCHPchem',
                          'EmisHCl_Anthro       ', 'GCHPchem',
                          'EmisHCOOH_Total      ', 'GCHPchem',
                          'EmisHCOOH_Anthro     ', 'GCHPchem',
                          'EmisHCOOH_BioBurn    ', 'GCHPchem',
                          'EmisHCOOH_Ship       ', 'GCHPchem',
                          'EmisHNO3_Ship        ', 'GCHPchem',
                          'EmisHONO_Aircraft    ', 'GCHPchem',
                          'EmisISOP_Total       ', 'GCHPchem',
                          'EmisISOP_BioBurn     ', 'GCHPchem',
                          'EmisISOP_Biogenic    ', 'GCHPchem',
                          'EmisLIMO_Biogenic    ', 'GCHPchem',
                          'EmisMACR_Total       ', 'GCHPchem',
                          'EmisMACR_Aircraft    ', 'GCHPchem',
                          'EmisMEK_Total        ', 'GCHPchem',
                          'EmisMEK_Anthro       ', 'GCHPchem',
                          'EmisMEK_BioBurn      ', 'GCHPchem',
                          'EmisMEK_Ship         ', 'GCHPchem',
                          'EmisMENO3_Ocean      ', 'GCHPchem',
                          'EmisMGLY_Total       ', 'GCHPchem',
                          'EmisMGLY_BioBurn     ', 'GCHPchem',
                          'EmisMOH_Total        ', 'GCHPchem',
                          'EmisMOH_Anthro       ', 'GCHPchem',
                          'EmisMOH_BioBurn      ', 'GCHPchem',
                          'EmisMOH_Biogenic     ', 'GCHPchem',
                          'EmisMOH_Ocean        ', 'GCHPchem',
                          'EmisMOH_Ship         ', 'GCHPchem',
                          'EmisMTPA_Total       ', 'GCHPchem',
                          'EmisMTPA_BioBurn     ', 'GCHPchem',
                          'EmisMTPA_Biogenic    ', 'GCHPchem',
                          'EmisMTPO_Total       ', 'GCHPchem',
                          'EmisMTPO_Biogenic    ', 'GCHPchem',
                          'EmisMVK_Total        ', 'GCHPchem',
                          'EmisMVK_BioBurn      ', 'GCHPchem',
                          'EmisNAP_Total        ', 'GCHPchem',
                          'EmisNAP_Anthro       ', 'GCHPchem',
                          'EmisNAP_BioBurn      ', 'GCHPchem',
                          'EmisNH3_Total        ', 'GCHPchem',
                          'EmisNH3_Anthro       ', 'GCHPchem',
                          'EmisNH3_BioBurn      ', 'GCHPchem',
                          'EmisNH3_Natural      ', 'GCHPchem',
                          'EmisNH3_Seabirds     ', 'GCHPchem',
                          'EmisNH3_Ship         ', 'GCHPchem',
                          'EmisNO_Total         ', 'GCHPchem',
                          'EmisNO_Aircraft      ', 'GCHPchem',
                          'EmisNO_Anthro        ', 'GCHPchem',
                          'EmisNO_BioBurn       ', 'GCHPchem',
                          'EmisNO_Lightning     ', 'GCHPchem',
                          'EmisNO_Ship          ', 'GCHPchem',
                          'EmisNO_Soil          ', 'GCHPchem',
                          'EmisNO2_Total        ', 'GCHPchem',
                          'EmisNO2_Aircraft     ', 'GCHPchem',
                          'EmisNO2_Ship         ', 'GCHPchem',
                          'EmisO3_Ship          ', 'GCHPchem',
                          'EmisOCPI_Total       ', 'GCHPchem',
                          'EmisOCPI_Aircraft    ', 'GCHPchem',
                          'EmisOCPI_Anthro      ', 'GCHPchem',
                          'EmisOCPI_BioBurn     ', 'GCHPchem',
                          'EmisOCPI_Ship        ', 'GCHPchem',
                          'EmisOCPO_Total       ', 'GCHPchem',
                          'EmisOCPO_Anthro      ', 'GCHPchem',
                          'EmisOCPO_BioBurn     ', 'GCHPchem',
                          'EmisOCPO_Ship        ', 'GCHPchem',
                          'EmispFe_Total        ', 'GCHPchem',
                          'EmispFe_Anthro       ', 'GCHPchem',
                          'EmispFe_Ship         ', 'GCHPchem',
                          'EmisPHEN_Total       ', 'GCHPchem',
                          'EmisPHEN_BioBurn     ', 'GCHPchem',
                          'EmisPOG1_Total       ', 'GCHPchem',
                          'EmisPOG1_Anthro      ', 'GCHPchem',
                          'EmisPOG1_BioBurn     ', 'GCHPchem',
                          'EmisPOG2_Total       ', 'GCHPchem',
                          'EmisPOG2_Anthro      ', 'GCHPchem',
                          'EmisPOG2_BioBurn     ', 'GCHPchem',
                          'EmisPRPE_Total       ', 'GCHPchem',
                          'EmisPRPE_Aircraft    ', 'GCHPchem',
                          'EmisPRPE_Anthro      ', 'GCHPchem',
                          'EmisPRPE_BioBurn     ', 'GCHPchem',
                          'EmisPRPE_Biogenic    ', 'GCHPchem',
                          'EmisPRPE_Ship        ', 'GCHPchem',
                          'EmisRCHO_Total       ', 'GCHPchem',
                          'EmisRCHO_Aircraft    ', 'GCHPchem',
                          'EmisRCHO_BioBurn     ', 'GCHPchem',
                          ####'EmisSESQ_Biogenic    ', 'GCHPchem',
                          'EmisSALA_Natural     ', 'GCHPchem',
                          'EmisBrSALA_Natural   ', 'GCHPchem',
                          'EmisSALAAL_Natural   ', 'GCHPchem',
                          'EmisSALACL_Natural   ', 'GCHPchem',
                          'EmisSALC_Natural     ', 'GCHPchem',
                          'EmisBrSALC_Natural   ', 'GCHPchem',
                          'EmisSALCAL_Natural   ', 'GCHPchem',
                          'EmisSALCCL_Natural   ', 'GCHPchem',
                          'EmisSO2_Total        ', 'GCHPchem',
                          'EmisSO2_Aircraft     ', 'GCHPchem',
                          'EmisSO2_Anthro       ', 'GCHPchem',
                          'EmisSO2_BioBurn      ', 'GCHPchem',
                          'EmisSO2_VolcErupt    ', 'GCHPchem',
                          'EmisSO2_VolcDegas    ', 'GCHPchem',
                          'EmisSO2_Ship         ', 'GCHPchem',
                          'EmisSO4_Total        ', 'GCHPchem',
                          'EmisSO4_Aircraft     ', 'GCHPchem',
                          'EmisSO4_Anthro       ', 'GCHPchem',
                          'EmisSO4_Ship         ', 'GCHPchem',
                          'EmisSOAP_Total       ', 'GCHPchem',
                          'EmisSOAP_Aircraft    ', 'GCHPchem',
                          'EmisSOAP_Anthro      ', 'GCHPchem',
                          'EmisSOAP_Biogenic    ', 'GCHPchem',
                          'EmisSOAP_BioBurn     ', 'GCHPchem',
                          'EmisSOAP_Ship        ', 'GCHPchem',
                          'EmisSOAS_Biogenic    ', 'GCHPchem',
                          'EmisSTYR_Total       ', 'GCHPchem',
                          'EmisSTYR_BioBurn     ', 'GCHPchem',
                          'EmisTOLU_Total       ', 'GCHPchem',
                          'EmisTOLU_Anthro      ', 'GCHPchem',
                          'EmisTOLU_BioBurn     ', 'GCHPchem',
                          'EmisTOLU_Ship        ', 'GCHPchem',
                          'EmisXYLE_Total       ', 'GCHPchem',
                          'EmisXYLE_Anthro      ', 'GCHPchem',
                          'EmisXYLE_BioBurn     ', 'GCHPchem',
                          'EmisXYLE_Ship        ', 'GCHPchem',
                          'HcoLightningFlashRate_Total     ', 'GCHPchem',
                          'HcoLightningFlashRate_IntraCld  ', 'GCHPchem',
                          'HcoLightningFlashRate_CldGround ', 'GCHPchem',
                          'HcoConvectiveCloudTopHeight     ', 'GCHPchem',
                          #'InvCEDS_ALD2         ', 'GCHPchem',
                          #'InvCEDS_ALK4         ', 'GCHPchem',
                          #'InvCEDS_BCPI         ', 'GCHPchem',
                          #'InvCEDS_BCPO         ', 'GCHPchem',
                          #'InvCEDS_BENZ         ', 'GCHPchem',
                          #'InvCEDS_C2H2         ', 'GCHPchem',
                          ####'InvCEDS_C2H4         ', 'GCHPchem',
                          #'InvCEDS_C2H6         ', 'GCHPchem',
                          #'InvCEDS_C3H8         ', 'GCHPchem',
                          #'InvCEDS_CH2O         ', 'GCHPchem',
                          #'InvCEDS_CO           ', 'GCHPchem',
                          #'InvCEDS_MOH          ', 'GCHPchem',
                          #'InvCEDS_EOH          ', 'GCHPchem',
                          #'InvCEDS_ROH          ', 'GCHPchem',
                          #'InvCEDS_HCOOH        ', 'GCHPchem',
                          #'InvCEDS_MEK          ', 'GCHPchem',
                          #'InvCEDS_NH3          ', 'GCHPchem',
                          #'InvCEDS_NO           ', 'GCHPchem',
                          #'InvCEDS_OCPI         ', 'GCHPchem',
                          #'InvCEDS_OCPO         ', 'GCHPchem',
                          #'InvCEDS_pFe          ', 'GCHPchem',
                          #'InvCEDS_POG1         ', 'GCHPchem',
                          #'InvCEDS_POG2         ', 'GCHPchem',
                          #'InvCEDS_PRPE         ', 'GCHPchem',
                          #'InvCEDS_SO2          ', 'GCHPchem',
                          #'InvCEDS_SO4          ', 'GCHPchem',
                          #'InvCEDS_SOAP         ', 'GCHPchem',
                          #'InvCEDS_TOLU         ', 'GCHPchem',
                          #'InvCEDS_XYLE         ', 'GCHPchem',
                          #'InvGEIAnatural_NH3   ', 'GCHPchem',
                          #'InvSEABIRDS_NH3      ', 'GCHPchem',
                          #'InvC2H62010_C2H6     ', 'GCHPchem',
                          #'InvXIAO_C3H8         ', 'GCHPchem',
                          #'InvLIANG_CH2Br2      ', 'GCHPchem',
                          #'InvLIANG_CHBr3       ', 'GCHPchem',
                          #'InvORDONEZ_CH2I2     ', 'GCHPchem',
                          #'InvORDONEZ_CH2ICl    ', 'GCHPchem',
                          #'InvORDONEZ_CH2IBr    ', 'GCHPchem',
                          #'InvORDONEZ_CH3I      ', 'GCHPchem',
                          #'InvCEDSship_ALD2     ', 'GCHPchem',
                          #'InvCEDSship_ALK4     ', 'GCHPchem',
                          #'InvCEDSship_BCPI     ', 'GCHPchem',
                          #'InvCEDSship_BCPO     ', 'GCHPchem',
                          #'InvCEDSship_BENZ     ', 'GCHPchem',
                          #'InvCEDSship_C2H2     ', 'GCHPchem',
                          #'InvCEDSship_C2H4     ', 'GCHPchem',
                          #'InvCEDSship_C2H6     ', 'GCHPchem',
                          #'InvCEDSship_C3H8     ', 'GCHPchem',
                          #'InvCEDSship_CH2O     ', 'GCHPchem',
                          #'InvCEDSship_CO       ', 'GCHPchem',
                          #'InvCEDSship_EOH      ', 'GCHPchem',
                          #'InvCEDSship_HCOOH    ', 'GCHPchem',
                          #'InvCEDSship_MEK      ', 'GCHPchem',
                          #'InvCEDSship_NH3      ', 'GCHPchem',
                          #'InvCEDSship_pFe      ', 'GCHPchem',
                          #'InvCEDSship_PRPE     ', 'GCHPchem',
                          #'InvCEDSship_OCPI     ', 'GCHPchem',
                          #'InvCEDSship_OCPO     ', 'GCHPchem',
                          #'InvCEDSship_SO2      ', 'GCHPchem',
                          #'InvCEDSship_SO4      ', 'GCHPchem',
                          #'InvCEDSship_SOAP     ', 'GCHPchem',
                          #'InvCEDSship_TOLU     ', 'GCHPchem',
                          #'InvCEDSship_XYLE     ', 'GCHPchem',
                          #'InvAEIC_ACET     ', 'GCHPchem',
                          #'InvAEIC_ALD2     ', 'GCHPchem',
                          #'InvAEIC_ALK4     ', 'GCHPchem',
                          #'InvAEIC_BCPI     ', 'GCHPchem',
                          #'InvAEIC_C2H6     ', 'GCHPchem',
                          #'InvAEIC_C3H8     ', 'GCHPchem',
                          #'InvAEIC_CH2O     ', 'GCHPchem',
                          #'InvAEIC_CO       ', 'GCHPchem',
                          #'InvAEIC_HONO     ', 'GCHPchem',
                          #'InvAEIC_MACR     ', 'GCHPchem',
                          #'InvAEIC_NO       ', 'GCHPchem',
                          #'InvAEIC_NO2      ', 'GCHPchem',
                          #'InvAEIC_OCPI     ', 'GCHPchem',
                          #'InvAEIC_PRPE     ', 'GCHPchem',
                          #'InvAEIC_RCHO     ', 'GCHPchem',
                          #'InvAEIC_SO2      ', 'GCHPchem',
                          #'InvAEIC_SO4      ', 'GCHPchem',
                          #'InvAEIC_SOAP     ', 'GCHPchem',
                          #'InvPLANTDECAY_ALD2   ', 'GCHPchem',
                          #'InvPLANTDECAY_EOH    ', 'GCHPchem',
                          #'InvAFCID_DST1        ', 'GCHPchem',
                          #'InvSeaFlux_ACET      ', 'GCHPchem',
                          #'InvSeaFlux_ALD2      ', 'GCHPchem',
                          #'InvSeaFlux_DMS       ', 'GCHPchem',
                          #'InvSeaFlux_ETNO3     ', 'GCHPchem',
                          #'InvSeaFlux_MENO3     ', 'GCHPchem',
                          #'InvSeaFlux_MOH       ', 'GCHPchem',
                          #'InvPARANOX_HNO3      ', 'GCHPchem',
                          #'InvPARANOX_NO        ', 'GCHPchem',
                          #'InvPARANOX_NO2       ', 'GCHPchem',
                          #'InvPARANOX_O3        ', 'GCHPchem',
                          #'InvLIGHTNOX_NO       ', 'GCHPchem',
                          #'InvSOILNOX_NO        ', 'GCHPchem',
                          #'InvDEAD_DST1         ', 'GCHPchem',
                          #'InvDEAD_DST2         ', 'GCHPchem',
                          #'InvDEAD_DST3         ', 'GCHPchem',
                          #'InvDEAD_DST4         ', 'GCHPchem',
                          #'InvSeaSalt_BrSALA    ', 'GCHPchem',
                          #'InvSeaSalt_BrSALC    ', 'GCHPchem',
                          #'InvSeaSalt_SALA      ', 'GCHPchem',
                          #'InvSeaSalt_SALC      ', 'GCHPchem',
                          #'InvSeaSalt_SALAAL    ', 'GCHPchem',
                          #'InvSeaSalt_SALACL    ', 'GCHPchem',
                          #'InvSeaSalt_SALCAL    ', 'GCHPchem',
                          #'InvSeaSalt_SALCCL    ', 'GCHPchem',
                          #'InvMEGAN_ALD2        ', 'GCHPchem',
                          ####'InvMEGAN_C2H4        ', 'GCHPchem',
                          #'InvMEGAN_EOH         ', 'GCHPchem',
                          #'InvMEGAN_ISOP        ', 'GCHPchem',
                          #'InvMEGAN_LIMO        ', 'GCHPchem',
                          #'InvMEGAN_MTPA        ', 'GCHPchem',
                          #'InvMEGAN_MTPO        ', 'GCHPchem',
                          #'InvMEGAN_PRPE        ', 'GCHPchem',
                          ####'InvMEGAN_SESQ        ', 'GCHPchem',
                          #'InvMEGAN_SOAP        ', 'GCHPchem',
                          #'InvMEGAN_SOAS        ', 'GCHPchem',
                          #'InvMEGAN_ACET        ', 'GCHPchem',
                          #'InvMEGAN_ACET_MONO   ', 'GCHPchem',
                          #'InvMEGAN_ACET_MBOX   ', 'GCHPchem',
                          #'InvMEGAN_ACET_DIRECT ', 'GCHPchem',
                          #'InvMEGAN_MOH         ', 'GCHPchem',
                          #'InvMEGAN_APIN        ', 'GCHPchem',
                          #'InvMEGAN_BPIN        ', 'GCHPchem',
                          #'InvMEGAN_SABI        ', 'GCHPchem',
                          #'InvMEGAN_MYRC        ', 'GCHPchem',
                          #'InvMEGAN_CARE        ', 'GCHPchem',
                          #'InvMEGAN_OCIM        ', 'GCHPchem',
                          #'InvMEGAN_OMON        ', 'GCHPchem',
                          #'InvMEGAN_MONX        ', 'GCHPchem',
                          #'InvMEGAN_FARN        ', 'GCHPchem',
                          #'InvMEGAN_BCAR        ', 'GCHPchem',
                          #'InvMEGAN_OSQT        ', 'GCHPchem',
                          #'InvMEGAN_MBOX        ', 'GCHPchem',
                          #'InvMEGAN_FAXX        ', 'GCHPchem',
                          #'InvMEGAN_AAXX        ', 'GCHPchem',
                          #'InvGFED_ACET         ', 'GCHPchem',
                          #'InvGFED_ACR          ', 'GCHPchem',
                          #'InvGFED_ACTA         ', 'GCHPchem',
                          #'InvGFED_ALD2         ', 'GCHPchem',
                          #'InvGFED_ALK4         ', 'GCHPchem',
                          #'InvGFED_BCPI         ', 'GCHPchem',
                          #'InvGFED_BCPO         ', 'GCHPchem',
                          #'InvGFED_BENZ         ', 'GCHPchem',
                          #'InvGFED_C2H6         ', 'GCHPchem',
                          #'InvGFED_C3H8         ', 'GCHPchem',
                          #'InvGFED_C4H6         ', 'GCHPchem',
                          #'InvGFED_CH2O         ', 'GCHPchem',
                          #'InvGFED_CO           ', 'GCHPchem',
                          #'InvGFED_EOH          ', 'GCHPchem',
                          #'InvGFED_FURA         ', 'GCHPchem',
                          #'InvGFED_GLYX         ', 'GCHPchem',
                          #'InvGFED_HCOOH        ', 'GCHPchem',
                          #'InvGFED_ISOP         ', 'GCHPchem',
                          #'InvGFED_MEK          ', 'GCHPchem',
                          #'InvGFED_MGLY         ', 'GCHPchem',
                          #'InvGFED_MOH          ', 'GCHPchem',
                          #'InvGFED_MTPA         ', 'GCHPchem',
                          #'InvGFED_MVK          ', 'GCHPchem',
                          #'InvGFED_NAP          ', 'GCHPchem',
                          #'InvGFED_NH3          ', 'GCHPchem',
                          #'InvGFED_NO           ', 'GCHPchem',
                          #'InvGFED_OCPI         ', 'GCHPchem',
                          #'InvGFED_OCPO         ', 'GCHPchem',
                          #'InvGFED_PHEN         ', 'GCHPchem',
                          #'InvGFED_POG1         ', 'GCHPchem',
                          #'InvGFED_POG2         ', 'GCHPchem',
                          #'InvGFED_PRPE         ', 'GCHPchem',
                          #'InvGFED_RCHO         ', 'GCHPchem',
                          #'InvGFED_SO2          ', 'GCHPchem',
                          #'InvGFED_SOAP         ', 'GCHPchem',
                          #'InvGFED_STYR         ', 'GCHPchem',
                          #'InvGFED_TOLU         ', 'GCHPchem',
                          #'InvGFED_XYLE         ', 'GCHPchem',
                          #'InvVOLCANOerupt_SO2  ', 'GCHPchem',
                          #'InvVOLCANOdegas_SO2  ', 'GCHPchem',
                          #'InvIODINE_HOI        ', 'GCHPchem',
                          #'InvIODINE_I2         ', 'GCHPchem',
::
#==============================================================================
  FV3Dynamics.template:       '%y4%m2%d2_%h2%n2z.nc4',
  FV3Dynamics.format:         'CFIO',
  FV3Dynamics.timestampStart: .true.
  FV3Dynamics.monthly:        1
  FV3Dynamics.frequency:      010000
  FV3Dynamics.duration:       010000
  FV3Dynamics.mode:           'time-averaged'
  FV3Dynamics.fields:         'PLE    ', 'DYNAMICS',
                              'DryPLE ', 'DYNAMICS',
                              'PLEadv ', 'DYNAMICS',
::
#==============================================================================
  GCHPctmEnvLevEdge.template:       '%y4%m2%d2_%h2%n2z.nc4',
  GCHPctmEnvLevEdge.format:         'CFIO',
  GCHPctmEnvLevEdge.timestampStart: .true.
  GCHPctmEnvLevEdge.monthly:        1
  GCHPctmEnvLevEdge.frequency:      010000
  GCHPctmEnvLevEdge.duration:       010000
  GCHPctmEnvLevEdge.mode:           'time-averaged'
  GCHPctmEnvLevEdge.fields:         'UpwardsMassFlux    ', 'GCHPctmEnv',
                                    'PLE0               ', 'GCHPctmEnv',
                                    'PLE1               ', 'GCHPctmEnv',
                                    'DryPLE0            ', 'GCHPctmEnv',
                                    'DryPLE1            ', 'GCHPctmEnv',
::
#==============================================================================
  GCHPctmEnvLevCenter.template:       '%y4%m2%d2_%h2%n2z.nc4',
  GCHPctmEnvLevCenter.format:         'CFIO',
  GCHPctmEnvLevCenter.timestampStart: .true.
  GCHPctmEnvLevCenter.monthly:        1
  GCHPctmEnvLevCenter.frequency:      010000
  GCHPctmEnvLevCenter.duration:       010000
  GCHPctmEnvLevCenter.mode:           'time-averaged'
  GCHPctmEnvLevCenter.fields:         'SPHU0    ', 'GCHPctmEnv',
                                      'CX       ', 'GCHPctmEnv',
                                      'CY       ', 'GCHPctmEnv',
                                      'MFX      ', 'GCHPctmEnv',
                                      'MFY      ', 'GCHPctmEnv',
::
#==============================================================================
# %%%%% THE AerosolMass COLLECTION %%%%%
#
# Aerosol and PM2.5 mass
#
# Available for full-chemistry and aerosol-only simulations
#==============================================================================
  AerosolMass.template:       '%y4%m2%d2_%h2%n2z.nc4',
  AerosolMass.format:         'CFIO',
  AerosolMass.timestampStart: .true.
  AerosolMass.monthly:        1
  AerosolMass.frequency:      010000
  AerosolMass.duration:       010000
  AerosolMass.mode:           'time-averaged'
  AerosolMass.fields:     'AerMassBC          ', 'GCHPchem',
                          'AerMassINDIOL      ', 'GCHPchem',
                          'AerMassLVOCOA      ', 'GCHPchem',
                          'AerMassNH4         ', 'GCHPchem',
                          'AerMassNIT         ', 'GCHPchem',
                          'AerMassPOA         ', 'GCHPchem',
                          'AerMassSAL         ', 'GCHPchem',
                          'AerMassSO4         ', 'GCHPchem',
                          'AerMassSOAGX       ', 'GCHPchem',
                          'AerMassSOAIE       ', 'GCHPchem',
                          'PM25               ', 'GCHPchem',
                          'PM10               ', 'GCHPchem',
                          'TotalOA            ', 'GCHPchem',
                          'TotalOC            ', 'GCHPchem',
                          #'AerMassASOA        ', 'GCHPchem',
                          #'AerMassOPOA        ', 'GCHPchem',
                          #'AerMassTSOA        ', 'GCHPchem',
                          #'BetaNO             ', 'GCHPchem',
                          #'TotalBiogenicOA    ', 'GCHPchem',
::
#==============================================================================
# %%%%% The Aerosols COLLECTION %%%%%
#
# Aerosol optical depth, surface area, number density, and hygroscopic growth
#
# Available for full-chemistry or aerosol-only simulations
#==============================================================================
  Aerosols.template:       '%y4%m2%d2_%h2%n2z.nc4',
  Aerosols.format:         'CFIO',
  Aerosols.timestampStart: .true.
  Aerosols.monthly:        1
  Aerosols.frequency:      010000
  Aerosols.duration:       010000
  Aerosols.mode:           'time-averaged'
  Aerosols.fields:        'AODHygWL1_SO4                 ', 'GCHPchem',
                          'AODHygWL1_BCPI                ', 'GCHPchem',
                          'AODHygWL1_OCPI                ', 'GCHPchem',
                          'AODHygWL1_SALA                ', 'GCHPchem',
                          'AODHygWL1_SALC                ', 'GCHPchem',
                          'AODDust                       ', 'GCHPchem',
                          'AODDustWL1_bin1               ', 'GCHPchem',
                          'AODDustWL1_bin2               ', 'GCHPchem',
                          'AODDustWL1_bin3               ', 'GCHPchem',
                          'AODDustWL1_bin4               ', 'GCHPchem',
                          'AODDustWL1_bin5               ', 'GCHPchem',
                          'AODDustWL1_bin6               ', 'GCHPchem',
                          'AODDustWL1_bin7               ', 'GCHPchem',
                          'AODSOAfromAqIsopreneWL1       ', 'GCHPchem',
                          'AODStratLiquidAerWL1          ', 'GCHPchem',
                          'AODPolarStratCloudWL1         ', 'GCHPchem',
                          'AerHygroscopicGrowth_SO4      ', 'GCHPchem',
                          'AerHygroscopicGrowth_BCPI     ', 'GCHPchem',
                          'AerHygroscopicGrowth_OCPI     ', 'GCHPchem',
                          'AerHygroscopicGrowth_SALA     ', 'GCHPchem',
                          'AerHygroscopicGrowth_SALC     ', 'GCHPchem',
                          'AerNumDensityStratLiquid      ', 'GCHPchem',
                          'AerNumDensityStratParticulate ', 'GCHPchem',
                          'AerAqueousVolume              ', 'GCHPchem',
                          'AerSurfAreaDust               ', 'GCHPchem',
                          'AerSurfAreaHyg_SO4            ', 'GCHPchem',
                          'AerSurfAreaHyg_BCPI           ', 'GCHPchem',
                          'AerSurfAreaHyg_OCPI           ', 'GCHPchem',
                          'AerSurfAreaHyg_SALA           ', 'GCHPchem',
                          'AerSurfAreaHyg_SALC           ', 'GCHPchem',
                          'AerSurfAreaStratLiquid        ', 'GCHPchem',
                          'AerSurfAreaPolarStratCloud    ', 'GCHPchem',
                          'Chem_AeroAreaMDUST1           ', 'GCHPchem',
                          'Chem_AeroAreaMDUST2           ', 'GCHPchem',
                          'Chem_AeroAreaMDUST3           ', 'GCHPchem',
                          'Chem_AeroAreaMDUST4           ', 'GCHPchem',
                          'Chem_AeroAreaMDUST5           ', 'GCHPchem',
                          'Chem_AeroAreaMDUST6           ', 'GCHPchem',
                          'Chem_AeroAreaMDUST7           ', 'GCHPchem',
                          'Chem_AeroAreaSULF             ', 'GCHPchem',
                          'Chem_AeroAreaBC               ', 'GCHPchem',
                          'Chem_AeroAreaOC               ', 'GCHPchem',
                          'Chem_AeroAreaSSA              ', 'GCHPchem',
                          'Chem_AeroAreaSSC              ', 'GCHPchem',
                          'Chem_AeroAreaBGSULF           ', 'GCHPchem',
                          'Chem_AeroAreaICEI             ', 'GCHPchem',
                          'Chem_AeroRadiMDUST1           ', 'GCHPchem',
                          'Chem_AeroRadiMDUST2           ', 'GCHPchem',
                          'Chem_AeroRadiMDUST3           ', 'GCHPchem',
                          'Chem_AeroRadiMDUST4           ', 'GCHPchem',
                          'Chem_AeroRadiMDUST5           ', 'GCHPchem',
                          'Chem_AeroRadiMDUST6           ', 'GCHPchem',
                          'Chem_AeroRadiMDUST7           ', 'GCHPchem',
                          'Chem_AeroRadiSULF             ', 'GCHPchem',
                          'Chem_AeroRadiBC               ', 'GCHPchem',
                          'Chem_AeroRadiOC               ', 'GCHPchem',
                          'Chem_AeroRadiSSA              ', 'GCHPchem',
                          'Chem_AeroRadiSSC              ', 'GCHPchem',
                          'Chem_AeroRadiBGSULF           ', 'GCHPchem',
                          'Chem_AeroRadiICEI             ', 'GCHPchem',
                          'Chem_WetAeroAreaMDUST1        ', 'GCHPchem',
                          'Chem_WetAeroAreaMDUST2        ', 'GCHPchem',
                          'Chem_WetAeroAreaMDUST3        ', 'GCHPchem',
                          'Chem_WetAeroAreaMDUST4        ', 'GCHPchem',
                          'Chem_WetAeroAreaMDUST5        ', 'GCHPchem',
                          'Chem_WetAeroAreaMDUST6        ', 'GCHPchem',
                          'Chem_WetAeroAreaMDUST7        ', 'GCHPchem',
                          'Chem_WetAeroAreaSULF          ', 'GCHPchem',
                          'Chem_WetAeroAreaBC            ', 'GCHPchem',
                          'Chem_WetAeroAreaOC            ', 'GCHPchem',
                          'Chem_WetAeroAreaSSA           ', 'GCHPchem',
                          'Chem_WetAeroAreaSSC           ', 'GCHPchem',
                          'Chem_WetAeroAreaBGSULF        ', 'GCHPchem',
                          'Chem_WetAeroAreaICEI          ', 'GCHPchem',
                          'Chem_WetAeroRadiMDUST1        ', 'GCHPchem',
                          'Chem_WetAeroRadiMDUST2        ', 'GCHPchem',
                          'Chem_WetAeroRadiMDUST3        ', 'GCHPchem',
                          'Chem_WetAeroRadiMDUST4        ', 'GCHPchem',
                          'Chem_WetAeroRadiMDUST5        ', 'GCHPchem',
                          'Chem_WetAeroRadiMDUST6        ', 'GCHPchem',
                          'Chem_WetAeroRadiMDUST7        ', 'GCHPchem',
                          'Chem_WetAeroRadiSULF          ', 'GCHPchem',
                          'Chem_WetAeroRadiBC            ', 'GCHPchem',
                          'Chem_WetAeroRadiOC            ', 'GCHPchem',
                          'Chem_WetAeroRadiSSA           ', 'GCHPchem',
                          'Chem_WetAeroRadiSSC           ', 'GCHPchem',
                          'Chem_WetAeroRadiBGSULF        ', 'GCHPchem',
                          'Chem_WetAeroRadiICEI          ', 'GCHPchem',
                          'Chem_StatePSC                 ', 'GCHPchem',
                          'Chem_KhetiSLAN2O5H2O          ', 'GCHPchem',
                          'Chem_KhetiSLAN2O5HCl          ', 'GCHPchem',
                          'Chem_KhetiSLAClNO3H2O         ', 'GCHPchem',
                          'Chem_KhetiSLAClNO3HCl         ', 'GCHPchem',
                          'Chem_KhetiSLAClNO3HBr         ', 'GCHPchem',
                          'Chem_KhetiSLABrNO3H2O         ', 'GCHPchem',
                          'Chem_KhetiSLABrNO3HCl         ', 'GCHPchem',
                          'Chem_KhetiSLAHOClHCl          ', 'GCHPchem',
                          'Chem_KhetiSLAHOClHBr          ', 'GCHPchem',
                          'Chem_KhetiSLAHOBrHCl          ', 'GCHPchem',
                          'Chem_KhetiSLAHOBrHBr          ', 'GCHPchem',
                          'PDER                          ', 'GCHPchem',
::
#==============================================================================
# %%%%% THE Budget COLLECTION %%%%%
#
# GEOS-Chem budget diagnostics defined as species kg/s in the column
# (full, troposphere, PBL, or fixed levels) due to a single component
# (e.g. chemistry). May be computed for any advected species for all
# components except wet deposition (only wet deposited species available).
# GCHP components do not include carbon.
#
# Description on vertical regions:
#  Full = entire column
#  Trop = within troposphere only
#         NOTE: mass change from dynamic top-level included in BudgetTransportTrop
#  PBL  = within PBL only
#         NOTE: mass change from dynamic top-level included in BudgetMixingPBL
#  Levs = within fixed levels specific in diagnostic name, e.g. "Levs1to35"
#         NOTE: all Levs diagnostic must have the same range
#
# Available for all simulations
#==============================================================================
  Budget.template:        '%y4%m2%d2_%h2%n2z.nc4',
  Budget.format:          'CFIO',
  Budget.timestampStart:  .true.
  Budget.monthly:         1
  Budget.frequency:       010000
  Budget.duration:        010000
  Budget.mode:            'time-averaged'
  Budget.fields:          'BudgetWetDepFull_SO4         ', 'GCHPchem',
                          'BudgetChemistryFull_SO4      ', 'GCHPchem',
                          'BudgetConvectionFull_SO4     ', 'GCHPchem',
                          'BudgetMixingFull_SO4         ', 'GCHPchem',
                          'BudgetEmisDryDepFull_SO4     ', 'GCHPchem',
                          #
                          'BudgetWetDepLevs1to35_SO4    ', 'GCHPchem',
                          'BudgetChemistryLevs1to35_SO4 ', 'GCHPchem',
                          'BudgetConvectionLevs1to35_SO4', 'GCHPchem',
                          'BudgetMixingLevs1to35_SO4    ', 'GCHPchem',
                          'BudgetEmisDryDepLevs1to35_SO4', 'GCHPchem',
                           #
                          'BudgetWetDepTrop_SO4         ', 'GCHPchem',
                          'BudgetChemistryTrop_SO4      ', 'GCHPchem',
                          'BudgetConvectionTrop_SO4     ', 'GCHPchem',
                          'BudgetMixingTrop_SO4         ', 'GCHPchem',
                          'BudgetEmisDryDepTrop_SO4     ', 'GCHPchem',
                           #
                          'BudgetWetDepPBL_SO4          ', 'GCHPchem',
                          'BudgetChemistryPBL_SO4       ', 'GCHPchem',
                          'BudgetConvectionPBL_SO4      ', 'GCHPchem',
                          'BudgetMixingPBL_SO4          ', 'GCHPchem',
                          'BudgetEmisDryDepPBL_SO4      ', 'GCHPchem',
::
#=============================================================================
#%%%%% THE CloudConvFlux COLLECTION %%%%%
#
# Cloud convective flux (default = advected species)
#
# Available for all simulations
#=============================================================================
  CloudConvFlux.template:       '%y4%m2%d2_%h2%n2z.nc4',
  CloudConvFlux.format:         'CFIO',
  CloudConvFlux.timestampStart: .true.
  CloudConvFlux.monthly:        1
  CloudConvFlux.frequency:      010000
  CloudConvFlux.duration:       010000
  CloudConvFlux.mode:           'time-averaged'
  CloudConvFlux.fields:    'CloudConvFlux_XYLE          ', 'GCHPchem',
                           'CloudConvFlux_TOLU          ', 'GCHPchem',
                           'CloudConvFlux_SOAS          ', 'GCHPchem',
                           'CloudConvFlux_SOAP          ', 'GCHPchem',
                           'CloudConvFlux_SOAIE         ', 'GCHPchem',
                           'CloudConvFlux_SOAGX         ', 'GCHPchem',
                           'CloudConvFlux_SO4s          ', 'GCHPchem',
                           'CloudConvFlux_SO4           ', 'GCHPchem',
                           'CloudConvFlux_SO2           ', 'GCHPchem',
                           'CloudConvFlux_SALCCL        ', 'GCHPchem',
                           'CloudConvFlux_SALCAL        ', 'GCHPchem',
                           'CloudConvFlux_SALC          ', 'GCHPchem',
                           'CloudConvFlux_SALACL        ', 'GCHPchem',
                           'CloudConvFlux_SALAAL        ', 'GCHPchem',
                           'CloudConvFlux_SALA          ', 'GCHPchem',
                           'CloudConvFlux_RP            ', 'GCHPchem',
                           'CloudConvFlux_RIPD          ', 'GCHPchem',
                           'CloudConvFlux_RIPC          ', 'GCHPchem',
                           'CloudConvFlux_RIPB          ', 'GCHPchem',
                           'CloudConvFlux_RIPA          ', 'GCHPchem',
                           'CloudConvFlux_RCHO          ', 'GCHPchem',
                           'CloudConvFlux_RB3P          ', 'GCHPchem',
                           'CloudConvFlux_RA3P          ', 'GCHPchem',
                           'CloudConvFlux_R4P           ', 'GCHPchem',
                           'CloudConvFlux_R4N2          ', 'GCHPchem',
                           'CloudConvFlux_PYAC          ', 'GCHPchem',
                           'CloudConvFlux_PRPN          ', 'GCHPchem',
                           'CloudConvFlux_PRPE          ', 'GCHPchem',
                           'CloudConvFlux_PROPNN        ', 'GCHPchem',
                           'CloudConvFlux_PPN           ', 'GCHPchem',
                           'CloudConvFlux_PP            ', 'GCHPchem',
                           'CloudConvFlux_PIP           ', 'GCHPchem',
                           'CloudConvFlux_pFe           ', 'GCHPchem',
                           'CloudConvFlux_PAN           ', 'GCHPchem',
                           'CloudConvFlux_OIO           ', 'GCHPchem',
                           'CloudConvFlux_OCS           ', 'GCHPchem',
                           'CloudConvFlux_OCPO          ', 'GCHPchem',
                           'CloudConvFlux_OCPI          ', 'GCHPchem',
                           'CloudConvFlux_OClO          ', 'GCHPchem',
                           'CloudConvFlux_O3            ', 'GCHPchem',
                           'CloudConvFlux_NPRNO3        ', 'GCHPchem',
                           'CloudConvFlux_NO3           ', 'GCHPchem',
                           'CloudConvFlux_NO2           ', 'GCHPchem',
                           'CloudConvFlux_NO            ', 'GCHPchem',
                           'CloudConvFlux_NITs          ', 'GCHPchem',
                           'CloudConvFlux_NIT           ', 'GCHPchem',
                           'CloudConvFlux_NH4           ', 'GCHPchem',
                           'CloudConvFlux_NH3           ', 'GCHPchem',
                           'CloudConvFlux_N2O5          ', 'GCHPchem',
                           'CloudConvFlux_N2O           ', 'GCHPchem',
                           'CloudConvFlux_MVKPC         ', 'GCHPchem',
                           'CloudConvFlux_MVKN          ', 'GCHPchem',
                           'CloudConvFlux_MVKHP         ', 'GCHPchem',
                           'CloudConvFlux_MVKHCB        ', 'GCHPchem',
                           'CloudConvFlux_MVKHC         ', 'GCHPchem',
                           'CloudConvFlux_MVKDH         ', 'GCHPchem',
                           'CloudConvFlux_MVK           ', 'GCHPchem',
                           'CloudConvFlux_MTPO          ', 'GCHPchem',
                           'CloudConvFlux_MTPA          ', 'GCHPchem',
                           'CloudConvFlux_MSA           ', 'GCHPchem',
                           'CloudConvFlux_MPN           ', 'GCHPchem',
                           'CloudConvFlux_MPAN          ', 'GCHPchem',
                           'CloudConvFlux_MP            ', 'GCHPchem',
                           'CloudConvFlux_MONITU        ', 'GCHPchem',
                           'CloudConvFlux_MONITS        ', 'GCHPchem',
                           'CloudConvFlux_MONITA        ', 'GCHPchem',
                           'CloudConvFlux_MOH           ', 'GCHPchem',
                           'CloudConvFlux_MGLY          ', 'GCHPchem',
                           'CloudConvFlux_MENO3         ', 'GCHPchem',
                           'CloudConvFlux_MEK           ', 'GCHPchem',
                           'CloudConvFlux_MCRHP         ', 'GCHPchem',
                           'CloudConvFlux_MCRHNB        ', 'GCHPchem',
                           'CloudConvFlux_MCRHN         ', 'GCHPchem',
                           'CloudConvFlux_MCRENOL       ', 'GCHPchem',
                           'CloudConvFlux_MCRDH         ', 'GCHPchem',
                           'CloudConvFlux_MAP           ', 'GCHPchem',
                           'CloudConvFlux_MACR1OOH      ', 'GCHPchem',
                           'CloudConvFlux_MACR          ', 'GCHPchem',
                           'CloudConvFlux_LVOCOA        ', 'GCHPchem',
                           'CloudConvFlux_LVOC          ', 'GCHPchem',
                           'CloudConvFlux_LIMO          ', 'GCHPchem',
                           'CloudConvFlux_ITHN          ', 'GCHPchem',
                           'CloudConvFlux_ITCN          ', 'GCHPchem',
                           'CloudConvFlux_ISOP          ', 'GCHPchem',
                           'CloudConvFlux_ISALC         ', 'GCHPchem',
                           'CloudConvFlux_ISALA         ', 'GCHPchem',
                           'CloudConvFlux_IPRNO3        ', 'GCHPchem',
                           'CloudConvFlux_IONO2         ', 'GCHPchem',
                           'CloudConvFlux_IONO          ', 'GCHPchem',
                           'CloudConvFlux_IONITA        ', 'GCHPchem',
                           'CloudConvFlux_IO            ', 'GCHPchem',
                           'CloudConvFlux_INPD          ', 'GCHPchem',
                           'CloudConvFlux_INPB          ', 'GCHPchem',
                           'CloudConvFlux_INO           ', 'GCHPchem',
                           'CloudConvFlux_INDIOL        ', 'GCHPchem',
                           'CloudConvFlux_IHN4          ', 'GCHPchem',
                           'CloudConvFlux_IHN3          ', 'GCHPchem',
                           'CloudConvFlux_IHN2          ', 'GCHPchem',
                           'CloudConvFlux_IHN1          ', 'GCHPchem',
                           'CloudConvFlux_IEPOXD        ', 'GCHPchem',
                           'CloudConvFlux_IEPOXB        ', 'GCHPchem',
                           'CloudConvFlux_IEPOXA        ', 'GCHPchem',
                           'CloudConvFlux_IDN           ', 'GCHPchem',
                           'CloudConvFlux_IDHPE         ', 'GCHPchem',
                           'CloudConvFlux_IDHDP         ', 'GCHPchem',
                           'CloudConvFlux_IDCHP         ', 'GCHPchem',
                           'CloudConvFlux_IDC           ', 'GCHPchem',
                           'CloudConvFlux_ICPDH         ', 'GCHPchem',
                           'CloudConvFlux_ICN           ', 'GCHPchem',
                           'CloudConvFlux_ICl           ', 'GCHPchem',
                           'CloudConvFlux_ICHE          ', 'GCHPchem',
                           'CloudConvFlux_IBr           ', 'GCHPchem',
                           'CloudConvFlux_I2O4          ', 'GCHPchem',
                           'CloudConvFlux_I2O3          ', 'GCHPchem',
                           'CloudConvFlux_I2O2          ', 'GCHPchem',
                           'CloudConvFlux_I2            ', 'GCHPchem',
                           'CloudConvFlux_I             ', 'GCHPchem',
                           'CloudConvFlux_HPETHNL       ', 'GCHPchem',
                           'CloudConvFlux_HPALD4        ', 'GCHPchem',
                           'CloudConvFlux_HPALD3        ', 'GCHPchem',
                           'CloudConvFlux_HPALD2        ', 'GCHPchem',
                           'CloudConvFlux_HPALD1        ', 'GCHPchem',
                           'CloudConvFlux_HONIT         ', 'GCHPchem',
                           'CloudConvFlux_HOI           ', 'GCHPchem',
                           'CloudConvFlux_HOCl          ', 'GCHPchem',
                           'CloudConvFlux_HOBr          ', 'GCHPchem',
                           'CloudConvFlux_HNO4          ', 'GCHPchem',
                           'CloudConvFlux_HNO3          ', 'GCHPchem',
                           'CloudConvFlux_HNO2          ', 'GCHPchem',
                           'CloudConvFlux_HMS           ', 'GCHPchem',
                           'CloudConvFlux_HMML          ', 'GCHPchem',
                           'CloudConvFlux_HMHP          ', 'GCHPchem',
                           'CloudConvFlux_HI            ', 'GCHPchem',
                           'CloudConvFlux_HCOOH         ', 'GCHPchem',
                           'CloudConvFlux_HCl           ', 'GCHPchem',
                           'CloudConvFlux_HCFC22        ', 'GCHPchem',
                           'CloudConvFlux_HCFC142b      ', 'GCHPchem',
                           'CloudConvFlux_HCFC141b      ', 'GCHPchem',
                           'CloudConvFlux_HCFC123       ', 'GCHPchem',
                           'CloudConvFlux_HC5A          ', 'GCHPchem',
                           'CloudConvFlux_HBr           ', 'GCHPchem',
                           'CloudConvFlux_HAC           ', 'GCHPchem',
                           'CloudConvFlux_H2O2          ', 'GCHPchem',
                           'CloudConvFlux_H2O           ', 'GCHPchem',
                           'CloudConvFlux_H2402         ', 'GCHPchem',
                           'CloudConvFlux_H1301         ', 'GCHPchem',
                           'CloudConvFlux_H1211         ', 'GCHPchem',
                           'CloudConvFlux_GLYX          ', 'GCHPchem',
                           'CloudConvFlux_GLYC          ', 'GCHPchem',
                           'CloudConvFlux_ETP           ', 'GCHPchem',
                           'CloudConvFlux_ETNO3         ', 'GCHPchem',
                           'CloudConvFlux_ETHP          ', 'GCHPchem',
                           'CloudConvFlux_ETHN          ', 'GCHPchem',
                           'CloudConvFlux_ETHLN         ', 'GCHPchem',
                           'CloudConvFlux_EOH           ', 'GCHPchem',
                           'CloudConvFlux_DST4          ', 'GCHPchem',
                           'CloudConvFlux_DST3          ', 'GCHPchem',
                           'CloudConvFlux_DST2          ', 'GCHPchem',
                           'CloudConvFlux_DST1          ', 'GCHPchem',
                           'CloudConvFlux_DMS           ', 'GCHPchem',
                           'CloudConvFlux_CO            ', 'GCHPchem',
                           'CloudConvFlux_ClOO          ', 'GCHPchem',
                           'CloudConvFlux_ClO           ', 'GCHPchem',
                           'CloudConvFlux_ClNO3         ', 'GCHPchem',
                           'CloudConvFlux_ClNO2         ', 'GCHPchem',
                           'CloudConvFlux_Cl2O2         ', 'GCHPchem',
                           'CloudConvFlux_Cl2           ', 'GCHPchem',
                           'CloudConvFlux_Cl            ', 'GCHPchem',
                           'CloudConvFlux_CHCl3         ', 'GCHPchem',
                           'CloudConvFlux_CHBr3         ', 'GCHPchem',
                           'CloudConvFlux_CH4           ', 'GCHPchem',
                           'CloudConvFlux_CH3I          ', 'GCHPchem',
                           'CloudConvFlux_CH3Cl         ', 'GCHPchem',
                           'CloudConvFlux_CH3CCl3       ', 'GCHPchem',
                           'CloudConvFlux_CH3Br         ', 'GCHPchem',
                           'CloudConvFlux_CH2O          ', 'GCHPchem',
                           'CloudConvFlux_CH2ICl        ', 'GCHPchem',
                           'CloudConvFlux_CH2IBr        ', 'GCHPchem',
                           'CloudConvFlux_CH2I2         ', 'GCHPchem',
                           'CloudConvFlux_CH2Cl2        ', 'GCHPchem',
                           'CloudConvFlux_CH2Br2        ', 'GCHPchem',
                           'CloudConvFlux_CFC12         ', 'GCHPchem',
                           'CloudConvFlux_CFC115        ', 'GCHPchem',
                           'CloudConvFlux_CFC114        ', 'GCHPchem',
                           'CloudConvFlux_CFC113        ', 'GCHPchem',
                           'CloudConvFlux_CFC11         ', 'GCHPchem',
                           'CloudConvFlux_CCl4          ', 'GCHPchem',
                           'CloudConvFlux_C3H8          ', 'GCHPchem',
                           'CloudConvFlux_C2H6          ', 'GCHPchem',
                           'CloudConvFlux_C2H4          ', 'GCHPchem',
                           'CloudConvFlux_C2H2          ', 'GCHPchem',
                           'CloudConvFlux_BrSALC        ', 'GCHPchem',
                           'CloudConvFlux_BrSALA        ', 'GCHPchem',
                           'CloudConvFlux_BrO           ', 'GCHPchem',
                           'CloudConvFlux_BrNO3         ', 'GCHPchem',
                           'CloudConvFlux_BrNO2         ', 'GCHPchem',
                           'CloudConvFlux_BrCl          ', 'GCHPchem',
                           'CloudConvFlux_Br2           ', 'GCHPchem',
                           'CloudConvFlux_Br            ', 'GCHPchem',
                           'CloudConvFlux_BENZ          ', 'GCHPchem',
                           'CloudConvFlux_BCPO          ', 'GCHPchem',
                           'CloudConvFlux_BCPI          ', 'GCHPchem',
                           'CloudConvFlux_ATOOH         ', 'GCHPchem',
                           'CloudConvFlux_ALK4          ', 'GCHPchem',
                           'CloudConvFlux_ALD2          ', 'GCHPchem',
                           'CloudConvFlux_AERI          ', 'GCHPchem',
                           'CloudConvFlux_ACTA          ', 'GCHPchem',
                           'CloudConvFlux_ACET          ', 'GCHPchem',
                           #'CloudConvFlux_TSOG3         ', 'GCHPchem',
                           #'CloudConvFlux_TSOG2         ', 'GCHPchem',
                           #'CloudConvFlux_TSOG1         ', 'GCHPchem',
                           #'CloudConvFlux_TSOG0         ', 'GCHPchem',
                           #'CloudConvFlux_TSOA3         ', 'GCHPchem',
                           #'CloudConvFlux_TSOA2         ', 'GCHPchem',
                           #'CloudConvFlux_TSOA1         ', 'GCHPchem',
                           #'CloudConvFlux_TSOA0         ', 'GCHPchem',
                           #'CloudConvFlux_ASOG3         ', 'GCHPchem',
                           #'CloudConvFlux_ASOG2         ', 'GCHPchem',
                           #'CloudConvFlux_ASOG1         ', 'GCHPchem',
                           #'CloudConvFlux_ASOAN         ', 'GCHPchem',
                           #'CloudConvFlux_ASOA3         ', 'GCHPchem',
                           #'CloudConvFlux_ASOA2         ', 'GCHPchem',
                           #'CloudConvFlux_ASOA1         ', 'GCHPchem',
::
#=============================================================================
# %%%%% THE ConcAboveSfc COLLECTION %%%%%
#
# Concentrations of O3 and HNO3 at a user-specified altitude above
# the surface, such as 10m.  Set the desired output altitude in meters
# in the deposition settings in geoschem_config.yml.
#
# NOTES:
# (1) This collection requires dry deposition to be turned on.
# (2) All of the fields in the collection must be turned on.
# (3) This collection is best used with mode "instantaneous".
#=============================================================================
  ConcAboveSfc.template:       '%y4%m2%d2_%h2%n2z.nc4',
  ConcAboveSfc.format:         'CFIO',
  ConcAboveSfc.timestampStart: .true.
  ConcAboveSfc.frequency:      010000
  ConcAboveSfc.duration:       010000
  ConcAboveSfc.mode:           'instantaneous'
  ConcAboveSfc.fields:    'DryDepRaALT1                  ', 'GCHPchem',
                          'DryDepVelForALT1_O3           ', 'GCHPchem',
                          'DryDepVelForALT1_HNO3         ', 'GCHPchem',
                          'SpeciesConcALT1_O3            ', 'GCHPchem',
                          'SpeciesConcALT1_HNO3          ', 'GCHPchem',
::
#==============================================================================
# %%%%% THE ConcAfterChem COLLECTION %%%%%
#
# Concentrations of OH, HO2, O1D, O3P immediately after exiting the KPP solver
# or OH after the CH4 specialty-simulation chemistry routine.
#
# OH:       Available for all full-chemistry simulations and CH4 specialty sim
# HO2:      Available for all full-chemistry simulations
# O1D, O3P: Availalbe for full-chemistry simulations using UCX mechanism
#==============================================================================
  ConcAfterChem.template:       '%y4%m2%d2_%h2%n2z.nc4',
  ConcAfterChem.format:         'CFIO',
  ConcAfterChem.timestampStart: .true.
  ConcAfterChem.monthly:        1
  ConcAfterChem.frequency:      010000
  ConcAfterChem.duration:       010000
  ConcAfterChem.mode:           'time-averaged'
  ConcAfterChem.fields:    'OHconcAfterChem               ', 'GCHPchem',
                           'HO2concAfterChem              ', 'GCHPchem',
                           'O1DconcAfterChem              ', 'GCHPchem',
                           'O3PconcAfterChem              ', 'GCHPchem',
::
#==============================================================================
# %%%%% THE DryDep COLLECTION %%%%%
#
# Dry depositon fluxes and velocities
#
# Available for all simuations that have dry-depositing species
# NOTE: Only keep species that are needed for fullchem benchmarks
#==============================================================================
  DryDep.template:        '%y4%m2%d2_%h2%n2z.nc4',
  DryDep.format:          'CFIO',
  DryDep.timestampStart:  .true.
  DryDep.monthly:         1
  DryDep.frequency:       010000
  DryDep.duration:        010000
  DryDep.mode:            'time-averaged'
  DryDep.fields:          'DryDepVel_ACET       ', 'GCHPchem',
                          'DryDepVel_HNO3       ', 'GCHPchem',
	                  'DryDepVel_NH3        ', 'GCHPchem',
                          'DryDepVel_NH4        ', 'GCHPchem',
                          'DryDepVel_NIT        ', 'GCHPchem',
                          'DryDepVel_NITs       ', 'GCHPchem',
                          'DryDepVel_O3         ', 'GCHPchem',
                          'DryDepVel_SO4        ', 'GCHPchem',
                          'DryDep_O3            ', 'GCHPchem',
                          'DryDepChm_O3         ', 'GCHPchem',
                          'DryDepMix_O3         ', 'GCHPchem',
::
#==============================================================================
# %%%%% THE JValues COLLECTION %%%%%
#
# Photolysis rates (from the photolysis module)
#
# Available for all full-chemistry simulations with photolysis
#==============================================================================
  JValues.template:       '%y4%m2%d2_%h2%n2z.nc4',
  JValues.format:         'CFIO',
  JValues.timestampStart: .true.
  JValues.monthly:        1
  JValues.frequency:      010000
  JValues.duration:       010000
  JValues.mode:           'time-averaged'
  JValues.fields:         'JvalO3O3P       ', 'GCHPchem',
                          'JvalO3O1D       ', 'GCHPchem',
                          'Jval_ACET       ', 'GCHPchem',
                          'Jval_ALD2       ', 'GCHPchem',
                          'Jval_APINP      ', 'GCHPchem',
                          'Jval_ATOOH      ', 'GCHPchem',
                          'Jval_BALD       ', 'GCHPchem',
                          'Jval_BENZP      ', 'GCHPchem',
                          'Jval_BPINOOH    ', 'GCHPchem',
                          'Jval_BPINP      ', 'GCHPchem',
                          'Jval_Br2        ', 'GCHPchem',
                          'Jval_BrCl       ', 'GCHPchem',
                          'Jval_BrNO3      ', 'GCHPchem',
                          'Jval_BrNO2      ', 'GCHPchem',
                          'Jval_BrO        ', 'GCHPchem',
                          'Jval_BZCO3H     ', 'GCHPchem',
                          'Jval_C96O2H     ', 'GCHPchem',
                          'Jval_CCl4       ', 'GCHPchem',
                          'Jval_CFC11      ', 'GCHPchem',
                          'Jval_CFC12      ', 'GCHPchem',
                          'Jval_CFC113     ', 'GCHPchem',
                          'Jval_CFC114     ', 'GCHPchem',
                          'Jval_CFC115     ', 'GCHPchem',
                          'Jval_CH2Br2     ', 'GCHPchem',
                          'Jval_CH2Cl2     ', 'GCHPchem',
                          'Jval_CH2I2      ', 'GCHPchem',
                          'Jval_CH2IBr     ', 'GCHPchem',
                          'Jval_CH2ICl     ', 'GCHPchem',
                          'Jval_CH2O       ', 'GCHPchem',
                          'Jval_CH3Br      ', 'GCHPchem',
                          'Jval_CH3Cl      ', 'GCHPchem',
                          'Jval_CH3CCl3    ', 'GCHPchem',
                          'Jval_CH3I       ', 'GCHPchem',
                          'Jval_CHBr3      ', 'GCHPchem',
                          'Jval_Cl2        ', 'GCHPchem',
                          'Jval_Cl2O2      ', 'GCHPchem',
                          'Jval_ClNO2      ', 'GCHPchem',
                          'Jval_ClNO3      ', 'GCHPchem',
                          'Jval_ClO        ', 'GCHPchem',
                          'Jval_ClOO       ', 'GCHPchem',
                          'Jval_ETHLN      ', 'GCHPchem',
                          'Jval_ETHP       ', 'GCHPchem',
                          'Jval_ETNO3      ', 'GCHPchem',
                          'Jval_ETP        ', 'GCHPchem',
                          'Jval_GLYC       ', 'GCHPchem',
                          'Jval_GLYX       ', 'GCHPchem',
                          'Jval_HAC        ', 'GCHPchem',
                          'Jval_H2O2       ', 'GCHPchem',
                          'Jval_HCFC123    ', 'GCHPchem',
                          'Jval_HCFC141b   ', 'GCHPchem',
                          'Jval_HCFC142b   ', 'GCHPchem',
                          'Jval_HCFC22     ', 'GCHPchem',
                          'Jval_H1211      ', 'GCHPchem',
                          'Jval_H1301      ', 'GCHPchem',
                          'Jval_H2402      ', 'GCHPchem',
                          'Jval_HMHP       ', 'GCHPchem',
                          'Jval_HNO2       ', 'GCHPchem',
                          'Jval_HNO3       ', 'GCHPchem',
                          'Jval_HNO4       ', 'GCHPchem',
                          'Jval_HOBr       ', 'GCHPchem',
                          'Jval_HOCl       ', 'GCHPchem',
                          'Jval_HONIT      ', 'GCHPchem',
                          'Jval_HOI        ', 'GCHPchem',
                          'Jval_HPALD1     ', 'GCHPchem',
                          'Jval_HPALD2     ', 'GCHPchem',
                          'Jval_HPALD3     ', 'GCHPchem',
                          'Jval_HPALD4     ', 'GCHPchem',
                          'Jval_HPETHNL    ', 'GCHPchem',
                          'Jval_I2         ', 'GCHPchem',
                          'Jval_I2O2       ', 'GCHPchem',
                          'Jval_I2O3       ', 'GCHPchem',
                          'Jval_I2O4       ', 'GCHPchem',
                          'Jval_IBr        ', 'GCHPchem',
                          'Jval_ICl        ', 'GCHPchem',
                          'Jval_ICN        ', 'GCHPchem',
                          'Jval_ICPDH      ', 'GCHPchem',
                          'Jval_IDN        ', 'GCHPchem',
                          'Jval_IDCHP      ', 'GCHPchem',
                          'Jval_IDHDP      ', 'GCHPchem',
                          'Jval_IDHPE      ', 'GCHPchem',
                          'Jval_IHN1       ', 'GCHPchem',
                          'Jval_IHN2       ', 'GCHPchem',
                          'Jval_IHN3       ', 'GCHPchem',
                          'Jval_IHN4       ', 'GCHPchem',
                          'Jval_INO        ', 'GCHPchem',
                          'Jval_INPB       ', 'GCHPchem',
                          'Jval_INPD       ', 'GCHPchem',
                          'Jval_ITCN       ', 'GCHPchem',
                          'Jval_ITHN       ', 'GCHPchem',
                          'Jval_IO         ', 'GCHPchem',
                          'Jval_IONO       ', 'GCHPchem',
                          'Jval_IONO2      ', 'GCHPchem',
                          'Jval_IPRNO3     ', 'GCHPchem',
                          'Jval_LIMAL      ', 'GCHPchem',
                          'Jval_LIMO2H     ', 'GCHPchem',
                          'Jval_LIMO3H     ', 'GCHPchem',
                          'Jval_MACR       ', 'GCHPchem',
                          'Jval_MACR1OOH   ', 'GCHPchem',
                          'Jval_MAP        ', 'GCHPchem',
                          'Jval_MCRENOL    ', 'GCHPchem',
                          'Jval_MCRHN      ', 'GCHPchem',
                          'Jval_MCRHNB     ', 'GCHPchem',
                          'Jval_MCRHP      ', 'GCHPchem',
                          'Jval_MEK        ', 'GCHPchem',
                          'Jval_MENO3      ', 'GCHPchem',
                          'Jval_MGLY       ', 'GCHPchem',
                          'Jval_MVK        ', 'GCHPchem',
                          'Jval_MP         ', 'GCHPchem',
                          'Jval_MPN        ', 'GCHPchem',
                          'Jval_MONITS     ', 'GCHPchem',
                          'Jval_MONITU     ', 'GCHPchem',
                          'Jval_MVKHC      ', 'GCHPchem',
                          'Jval_MVKHCB     ', 'GCHPchem',
                          'Jval_MVKHP      ', 'GCHPchem',
                          'Jval_MVKN       ', 'GCHPchem',
                          'Jval_MVKPC      ', 'GCHPchem',
                          'Jval_N2O        ', 'GCHPchem',
                          'Jval_N2O5       ', 'GCHPchem',
                          'Jval_NIT        ', 'GCHPchem',
                          'Jval_NITs       ', 'GCHPchem',
                          'Jval_NO         ', 'GCHPchem',
                          'Jval_NO2        ', 'GCHPchem',
                          'Jval_NO3        ', 'GCHPchem',
                          'Jval_NPHEN      ', 'GCHPchem',
			  'Jval_NPRNO3     ', 'GCHPchem',
                          'Jval_O2         ', 'GCHPchem',
                          'Jval_O3         ', 'GCHPchem',
                          'Jval_OClO       ', 'GCHPchem',
                          'Jval_OCS        ', 'GCHPchem',
                          'Jval_OIO        ', 'GCHPchem',
                          'Jval_PAN        ', 'GCHPchem',
                          'Jval_PINAL      ', 'GCHPchem',
                          'Jval_PINO3H     ', 'GCHPchem',
                          'Jval_PINONIC    ', 'GCHPchem',
                          'Jval_PIP        ', 'GCHPchem',		  
                          'Jval_PP         ', 'GCHPchem',
                          'Jval_PPN        ', 'GCHPchem',
                          'Jval_PROPNN     ', 'GCHPchem',
                          'Jval_PRPN       ', 'GCHPchem',
                          'Jval_PYAC       ', 'GCHPchem',
                          'Jval_R4P        ', 'GCHPchem',
                          'Jval_R4N2       ', 'GCHPchem',
                          'Jval_RA3P       ', 'GCHPchem',
                          'Jval_RB3P       ', 'GCHPchem',
                          'Jval_RCHO       ', 'GCHPchem',
                          'Jval_RIPA       ', 'GCHPchem',
                          'Jval_RIPB       ', 'GCHPchem',
                          'Jval_RIPC       ', 'GCHPchem',
                          'Jval_RIPD       ', 'GCHPchem',
                          'Jval_RP         ', 'GCHPchem',
                          'Jval_SO4        ', 'GCHPchem',
::
#==============================================================================
# %%%%% THE UVFlux COLLECTION %%%%%
#
# UV fluxes (from the photolysis module)
#
# Available for all full-chemistry simulations with photolysis.
#
# NOTE: There seems to be an issue with this diagnostic in GCHP.
# We recommend that you leave the UVFlux collection turned off.
#==============================================================================
  UVFlux.template:       '%y4%m2%d2_%h2%n2z.nc4',
  UVFlux.format:         'CFIO',
  UVFlux.timestampStart: .true.
  UVFlux.monthly:        1
  UVFlux.frequency:      010000
  UVFlux.duration:       010000
  UVFlux.mode:           'time-averaged'
  UVFlux.fields:         'UVFluxNet_574nm        ', 'GCHPchem',
                         'UVFluxNet_380nm        ', 'GCHPchem',
                         'UVFluxNet_333nm        ', 'GCHPchem',
                         'UVFluxNet_316nm        ', 'GCHPchem',
                         'UVFluxNet_310nm        ', 'GCHPchem',
                         'UVFluxNet_303nm        ', 'GCHPchem',
                         'UVFluxNet_295nm        ', 'GCHPchem',
                         'UVFluxNet_277nm        ', 'GCHPchem',
                         'UVFluxNet_267nm        ', 'GCHPchem',
                         'UVFluxNet_261nm        ', 'GCHPchem',
                         'UVFluxNet_214nm        ', 'GCHPchem',
                         'UVFluxNet_211nm        ', 'GCHPchem',
                         'UVFluxNet_208nm        ', 'GCHPchem',
                         'UVFluxNet_202nm        ', 'GCHPchem',
                         'UVFluxNet_196nm        ', 'GCHPchem',
                         'UVFluxNet_193nm        ', 'GCHPchem',
                         'UVFluxNet_191nm        ', 'GCHPchem',
                         'UVFluxNet_187nm        ', 'GCHPchem',
                         'UVFluxDirect_574nm     ', 'GCHPchem',
                         'UVFluxDirect_380nm     ', 'GCHPchem',
                         'UVFluxDirect_333nm     ', 'GCHPchem',
                         'UVFluxDirect_316nm     ', 'GCHPchem',
                         'UVFluxDirect_310nm     ', 'GCHPchem',
                         'UVFluxDirect_303nm     ', 'GCHPchem',
                         'UVFluxDirect_295nm     ', 'GCHPchem',
                         'UVFluxDirect_277nm     ', 'GCHPchem',
                         'UVFluxDirect_267nm     ', 'GCHPchem',
                         'UVFluxDirect_261nm     ', 'GCHPchem',
                         'UVFluxDirect_214nm     ', 'GCHPchem',
                         'UVFluxDirect_211nm     ', 'GCHPchem',
                         'UVFluxDirect_208nm     ', 'GCHPchem',
                         'UVFluxDirect_202nm     ', 'GCHPchem',
                         'UVFluxDirect_196nm     ', 'GCHPchem',
                         'UVFluxDirect_193nm     ', 'GCHPchem',
                         'UVFluxDirect_191nm     ', 'GCHPchem',
                         'UVFluxDirect_187nm     ', 'GCHPchem',
                         'UVFluxDiffuse_574nm    ', 'GCHPchem',
                         'UVFluxDiffuse_380nm    ', 'GCHPchem',
[...]
                          'WetLossConvFrac_SALAAL     ', 'GCHPchem',
                          'WetLossConvFrac_SALA       ', 'GCHPchem',
                          'WetLossConvFrac_RP         ', 'GCHPchem',
                          'WetLossConvFrac_RIPD       ', 'GCHPchem',
                          'WetLossConvFrac_RIPC       ', 'GCHPchem',
                          'WetLossConvFrac_RIPB       ', 'GCHPchem',
                          'WetLossConvFrac_RIPA       ', 'GCHPchem',
                          'WetLossConvFrac_RB3P       ', 'GCHPchem',
                          'WetLossConvFrac_RA3P       ', 'GCHPchem',
                          'WetLossConvFrac_R4P        ', 'GCHPchem',
                          'WetLossConvFrac_R4N2       ', 'GCHPchem',
                          'WetLossConvFrac_PYAC       ', 'GCHPchem',
                          'WetLossConvFrac_PRPN       ', 'GCHPchem',
                          'WetLossConvFrac_PRPE       ', 'GCHPchem',
                          'WetLossConvFrac_PROPNN     ', 'GCHPchem',
                          'WetLossConvFrac_PPN        ', 'GCHPchem',
                          'WetLossConvFrac_PP         ', 'GCHPchem',
                          'WetLossConvFrac_pFe        ', 'GCHPchem',
                          'WetLossConvFrac_PAN        ', 'GCHPchem',
                          'WetLossConvFrac_OCPO       ', 'GCHPchem',
                          'WetLossConvFrac_OCPI       ', 'GCHPchem',
                          'WetLossConvFrac_NITs       ', 'GCHPchem',
                          'WetLossConvFrac_NIT        ', 'GCHPchem',
                          'WetLossConvFrac_NH4        ', 'GCHPchem',
                          'WetLossConvFrac_NH3        ', 'GCHPchem',
                          'WetLossConvFrac_MVKPC      ', 'GCHPchem',
                          'WetLossConvFrac_MVKN       ', 'GCHPchem',
                          'WetLossConvFrac_MVKHP      ', 'GCHPchem',
                          'WetLossConvFrac_MVKHCB     ', 'GCHPchem',
                          'WetLossConvFrac_MVKHC      ', 'GCHPchem',
                          'WetLossConvFrac_MVKDH      ', 'GCHPchem',
                          'WetLossConvFrac_MVK        ', 'GCHPchem',
                          'WetLossConvFrac_MTPO       ', 'GCHPchem',
                          'WetLossConvFrac_MTPA       ', 'GCHPchem',
                          'WetLossConvFrac_MSA        ', 'GCHPchem',
                          'WetLossConvFrac_MPN        ', 'GCHPchem',
                          'WetLossConvFrac_MPAN       ', 'GCHPchem',
                          'WetLossConvFrac_MP         ', 'GCHPchem',
                          'WetLossConvFrac_MONITU     ', 'GCHPchem',
                          'WetLossConvFrac_MONITS     ', 'GCHPchem',
                          'WetLossConvFrac_MONITA     ', 'GCHPchem',
                          'WetLossConvFrac_MOH        ', 'GCHPchem',
                          'WetLossConvFrac_MGLY       ', 'GCHPchem',
                          'WetLossConvFrac_MEK        ', 'GCHPchem',
                          'WetLossConvFrac_MCRHP      ', 'GCHPchem',
                          'WetLossConvFrac_MCRHNB     ', 'GCHPchem',
                          'WetLossConvFrac_MCRHN      ', 'GCHPchem',
                          'WetLossConvFrac_MCRENOL    ', 'GCHPchem',
                          'WetLossConvFrac_MCRDH      ', 'GCHPchem',
                          'WetLossConvFrac_MAP        ', 'GCHPchem',
                          'WetLossConvFrac_MACR1OOH   ', 'GCHPchem',
                          'WetLossConvFrac_LVOCOA     ', 'GCHPchem',
                          'WetLossConvFrac_LVOC       ', 'GCHPchem',
                          'WetLossConvFrac_LIMO       ', 'GCHPchem',
                          'WetLossConvFrac_ITHN       ', 'GCHPchem',
                          'WetLossConvFrac_ITCN       ', 'GCHPchem',
                          'WetLossConvFrac_ISALC      ', 'GCHPchem',
                          'WetLossConvFrac_ISALA      ', 'GCHPchem',
                          'WetLossConvFrac_IONO2      ', 'GCHPchem',
                          'WetLossConvFrac_IONO       ', 'GCHPchem',
                          'WetLossConvFrac_IONITA     ', 'GCHPchem',
                          'WetLossConvFrac_INPD       ', 'GCHPchem',
                          'WetLossConvFrac_INPB       ', 'GCHPchem',
                          'WetLossConvFrac_INDIOL     ', 'GCHPchem',
                          'WetLossConvFrac_IHN4       ', 'GCHPchem',
                          'WetLossConvFrac_IHN3       ', 'GCHPchem',
                          'WetLossConvFrac_IHN2       ', 'GCHPchem',
                          'WetLossConvFrac_IHN1       ', 'GCHPchem',
                          'WetLossConvFrac_IEPOXD     ', 'GCHPchem',
                          'WetLossConvFrac_IEPOXB     ', 'GCHPchem',
                          'WetLossConvFrac_IEPOXA     ', 'GCHPchem',
                          'WetLossConvFrac_IDN        ', 'GCHPchem',
                          'WetLossConvFrac_IDHPE      ', 'GCHPchem',
                          'WetLossConvFrac_IDHDP      ', 'GCHPchem',
                          'WetLossConvFrac_IDCHP      ', 'GCHPchem',
                          'WetLossConvFrac_ICPDH      ', 'GCHPchem',
                          'WetLossConvFrac_ICN        ', 'GCHPchem',
                          'WetLossConvFrac_ICl        ', 'GCHPchem',
                          'WetLossConvFrac_ICHE       ', 'GCHPchem',
                          'WetLossConvFrac_IBr        ', 'GCHPchem',
                          'WetLossConvFrac_I2O4       ', 'GCHPchem',
                          'WetLossConvFrac_I2O3       ', 'GCHPchem',
                          'WetLossConvFrac_I2O2       ', 'GCHPchem',
                          'WetLossConvFrac_I2         ', 'GCHPchem',
                          'WetLossConvFrac_HPETHNL    ', 'GCHPchem',
                          'WetLossConvFrac_HONIT      ', 'GCHPchem',
                          'WetLossConvFrac_HOI        ', 'GCHPchem',
                          'WetLossConvFrac_HOCl       ', 'GCHPchem',
                          'WetLossConvFrac_HOBr       ', 'GCHPchem',
                          'WetLossConvFrac_HNO3       ', 'GCHPchem',
                          'WetLossConvFrac_HMS        ', 'GCHPchem',
                          'WetLossConvFrac_HMML       ', 'GCHPchem',
                          'WetLossConvFrac_HMHP       ', 'GCHPchem',
                          'WetLossConvFrac_HI         ', 'GCHPchem',
                          'WetLossConvFrac_HCOOH      ', 'GCHPchem',
                          'WetLossConvFrac_HCl        ', 'GCHPchem',
                          'WetLossConvFrac_HC5A       ', 'GCHPchem',
                          'WetLossConvFrac_HBr        ', 'GCHPchem',
                          'WetLossConvFrac_HAC        ', 'GCHPchem',
                          'WetLossConvFrac_H2O2       ', 'GCHPchem',
                          'WetLossConvFrac_GLYX       ', 'GCHPchem',
                          'WetLossConvFrac_GLYC       ', 'GCHPchem',
                          'WetLossConvFrac_ETP        ', 'GCHPchem',
                          'WetLossConvFrac_ETHP       ', 'GCHPchem',
                          'WetLossConvFrac_ETHN       ', 'GCHPchem',
                          'WetLossConvFrac_ETHLN      ', 'GCHPchem',
                          'WetLossConvFrac_EOH        ', 'GCHPchem',
                          'WetLossConvFrac_DST4       ', 'GCHPchem',
                          'WetLossConvFrac_DST3       ', 'GCHPchem',
                          'WetLossConvFrac_DST2       ', 'GCHPchem',
                          'WetLossConvFrac_DST1       ', 'GCHPchem',
                          'WetLossConvFrac_CH2O       ', 'GCHPchem',
                          'WetLossConvFrac_BrSALC     ', 'GCHPchem',
                          'WetLossConvFrac_BrSALA     ', 'GCHPchem',
                          'WetLossConvFrac_BrCl       ', 'GCHPchem',
                          'WetLossConvFrac_Br2        ', 'GCHPchem',
                          'WetLossConvFrac_BCPO       ', 'GCHPchem',
                          'WetLossConvFrac_BCPI       ', 'GCHPchem',
                          'WetLossConvFrac_ATOOH      ', 'GCHPchem',
                          'WetLossConvFrac_ALD2       ', 'GCHPchem',
                          'WetLossConvFrac_AERI       ', 'GCHPchem',
                          'WetLossConvFrac_ACTA       ', 'GCHPchem',
                          #'WetLossConvFrac_TSOG3      ', 'GCHPchem',
                          #'WetLossConvFrac_TSOG2      ', 'GCHPchem',
                          #'WetLossConvFrac_TSOG1      ', 'GCHPchem',
                          #'WetLossConvFrac_TSOG0      ', 'GCHPchem',
                          #'WetLossConvFrac_TSOA3      ', 'GCHPchem',
                          #'WetLossConvFrac_TSOA2      ', 'GCHPchem',
                          #'WetLossConvFrac_TSOA1      ', 'GCHPchem',
                          #'WetLossConvFrac_TSOA0      ', 'GCHPchem',
                          #'WetLossConvFrac_ASOG3      ', 'GCHPchem',
                          #'WetLossConvFrac_ASOG2      ', 'GCHPchem',
                          #'WetLossConvFrac_ASOG1      ', 'GCHPchem',
                          #'WetLossConvFrac_ASOAN      ', 'GCHPchem',
                          #'WetLossConvFrac_ASOA3      ', 'GCHPchem',
                          #'WetLossConvFrac_ASOA2      ', 'GCHPchem',
                          #'WetLossConvFrac_ASOA1      ', 'GCHPchem',
::
#=============================================================================
# %%%%% THE WetLossLS COLLECTION %%%%%
#
# Loss of soluble species in large-scale wetdep (i.e. rainout and washout)
#
# Available for all simulations that have soluble species
#=============================================================================
  WetLossLS.template:       '%y4%m2%d2_%h2%n2z.nc4',
  WetLossLS.format:         'CFIO',
  WetLossLS.timestampStart: .true.
  WetLossLS.monthly:        1
  WetLossLS.frequency:      010000
  WetLossLS.duration:       010000
  WetLossLS.mode:           'time-averaged'
  WetLossLS.fields:       'WetLossLS_SOAS           ', 'GCHPchem',
                          #'WetLossLS_TSOG3          ', 'GCHPchem',
                          #'WetLossLS_TSOG2          ', 'GCHPchem',
                          #'WetLossLS_TSOG1          ', 'GCHPchem',
                          #'WetLossLS_TSOG0          ', 'GCHPchem',
                          #'WetLossLS_TSOA3          ', 'GCHPchem',
                          #'WetLossLS_TSOA2          ', 'GCHPchem',
                          #'WetLossLS_TSOA1          ', 'GCHPchem',
                          #'WetLossLS_TSOA0          ', 'GCHPchem',
                          'WetLossLS_SOAIE          ', 'GCHPchem',
                          'WetLossLS_SOAGX          ', 'GCHPchem',
                          'WetLossLS_SO4s           ', 'GCHPchem',
                          'WetLossLS_SO4            ', 'GCHPchem',
                          'WetLossLS_SO2            ', 'GCHPchem',
                          'WetLossLS_SALCCL         ', 'GCHPchem',
                          'WetLossLS_SALCAL         ', 'GCHPchem',
                          'WetLossLS_SALC           ', 'GCHPchem',
                          'WetLossLS_SALACL         ', 'GCHPchem',
                          'WetLossLS_SALAAL         ', 'GCHPchem',
                          'WetLossLS_SALA           ', 'GCHPchem',
                          'WetLossLS_RP             ', 'GCHPchem',
                          'WetLossLS_RIPD           ', 'GCHPchem',
                          'WetLossLS_RIPC           ', 'GCHPchem',
                          'WetLossLS_RIPB           ', 'GCHPchem',
                          'WetLossLS_RIPA           ', 'GCHPchem',
                          'WetLossLS_RB3P           ', 'GCHPchem',
                          'WetLossLS_RA3P           ', 'GCHPchem',
                          'WetLossLS_R4P            ', 'GCHPchem',
                          'WetLossLS_R4N2           ', 'GCHPchem',
                          'WetLossLS_PYAC           ', 'GCHPchem',
                          'WetLossLS_PRPN           ', 'GCHPchem',
                          'WetLossLS_PRPE           ', 'GCHPchem',
                          'WetLossLS_PROPNN         ', 'GCHPchem',
                          'WetLossLS_PPN            ', 'GCHPchem',
                          'WetLossLS_PP             ', 'GCHPchem',
                          'WetLossLS_pFe            ', 'GCHPchem',
                          'WetLossLS_PAN            ', 'GCHPchem',
                          'WetLossLS_OCPO           ', 'GCHPchem',
                          'WetLossLS_OCPI           ', 'GCHPchem',
                          'WetLossLS_NITs           ', 'GCHPchem',
                          'WetLossLS_NIT            ', 'GCHPchem',
                          'WetLossLS_NH4            ', 'GCHPchem',
                          'WetLossLS_NH3            ', 'GCHPchem',
                          'WetLossLS_MVKPC          ', 'GCHPchem',
                          'WetLossLS_MVKN           ', 'GCHPchem',
                          'WetLossLS_MVKHP          ', 'GCHPchem',
                          'WetLossLS_MVKHCB         ', 'GCHPchem',
                          'WetLossLS_MVKHC          ', 'GCHPchem',
                          'WetLossLS_MVKDH          ', 'GCHPchem',
                          'WetLossLS_MVK            ', 'GCHPchem',
                          'WetLossLS_MTPO           ', 'GCHPchem',
                          'WetLossLS_MTPA           ', 'GCHPchem',
                          'WetLossLS_MSA            ', 'GCHPchem',
                          'WetLossLS_MPN            ', 'GCHPchem',
                          'WetLossLS_MPAN           ', 'GCHPchem',
                          'WetLossLS_MP             ', 'GCHPchem',
                          'WetLossLS_MONITU         ', 'GCHPchem',
                          'WetLossLS_MONITS         ', 'GCHPchem',
                          'WetLossLS_MONITA         ', 'GCHPchem',
                          'WetLossLS_MOH            ', 'GCHPchem',
                          'WetLossLS_MGLY           ', 'GCHPchem',
                          'WetLossLS_MEK            ', 'GCHPchem',
                          'WetLossLS_MCRHP          ', 'GCHPchem',
                          'WetLossLS_MCRHNB         ', 'GCHPchem',
                          'WetLossLS_MCRHN          ', 'GCHPchem',
                          'WetLossLS_MCRENOL        ', 'GCHPchem',
                          'WetLossLS_MCRDH          ', 'GCHPchem',
                          'WetLossLS_MAP            ', 'GCHPchem',
                          'WetLossLS_MACR1OOH       ', 'GCHPchem',
                          'WetLossLS_LVOCOA         ', 'GCHPchem',
                          'WetLossLS_LVOC           ', 'GCHPchem',
                          'WetLossLS_LIMO           ', 'GCHPchem',
                          'WetLossLS_ITHN           ', 'GCHPchem',
                          'WetLossLS_ITCN           ', 'GCHPchem',
                          'WetLossLS_ISALC          ', 'GCHPchem',
                          'WetLossLS_ISALA          ', 'GCHPchem',
                          'WetLossLS_IONO2          ', 'GCHPchem',
                          'WetLossLS_IONO           ', 'GCHPchem',
                          'WetLossLS_IONITA         ', 'GCHPchem',
                          'WetLossLS_INPD           ', 'GCHPchem',
                          'WetLossLS_INPB           ', 'GCHPchem',
                          'WetLossLS_INDIOL         ', 'GCHPchem',
                          'WetLossLS_IHN4           ', 'GCHPchem',
                          'WetLossLS_IHN3           ', 'GCHPchem',
                          'WetLossLS_IHN2           ', 'GCHPchem',
                          'WetLossLS_IHN1           ', 'GCHPchem',
                          'WetLossLS_IEPOXD         ', 'GCHPchem',
                          'WetLossLS_IEPOXB         ', 'GCHPchem',
                          'WetLossLS_IEPOXA         ', 'GCHPchem',
                          'WetLossLS_IDN            ', 'GCHPchem',
                          'WetLossLS_IDHPE          ', 'GCHPchem',
                          'WetLossLS_IDHDP          ', 'GCHPchem',
                          'WetLossLS_IDCHP          ', 'GCHPchem',
                          'WetLossLS_ICPDH          ', 'GCHPchem',
                          'WetLossLS_ICN            ', 'GCHPchem',
                          'WetLossLS_ICl            ', 'GCHPchem',
                          'WetLossLS_ICHE           ', 'GCHPchem',
                          'WetLossLS_IBr            ', 'GCHPchem',
                          'WetLossLS_I2O4           ', 'GCHPchem',
                          'WetLossLS_I2O3           ', 'GCHPchem',
                          'WetLossLS_I2O2           ', 'GCHPchem',
                          'WetLossLS_I2             ', 'GCHPchem',
                          'WetLossLS_HPETHNL        ', 'GCHPchem',
                          'WetLossLS_HONIT          ', 'GCHPchem',
                          'WetLossLS_HOI            ', 'GCHPchem',
                          'WetLossLS_HOCl           ', 'GCHPchem',
                          'WetLossLS_HOBr           ', 'GCHPchem',
                          'WetLossLS_HNO3           ', 'GCHPchem',
                          'WetLossLS_HMS            ', 'GCHPchem',
                          'WetLossLS_HMML           ', 'GCHPchem',
                          'WetLossLS_HMHP           ', 'GCHPchem',
                          'WetLossLS_HI             ', 'GCHPchem',
                          'WetLossLS_HCOOH          ', 'GCHPchem',
                          'WetLossLS_HCl            ', 'GCHPchem',
                          'WetLossLS_HC5A           ', 'GCHPchem',
                          'WetLossLS_HBr            ', 'GCHPchem',
                          'WetLossLS_HAC            ', 'GCHPchem',
                          'WetLossLS_H2O2           ', 'GCHPchem',
                          'WetLossLS_GLYX           ', 'GCHPchem',
                          'WetLossLS_GLYC           ', 'GCHPchem',
                          'WetLossLS_ETP            ', 'GCHPchem',
                          'WetLossLS_ETHP           ', 'GCHPchem',
                          'WetLossLS_ETHN           ', 'GCHPchem',
                          'WetLossLS_ETHLN          ', 'GCHPchem',
                          'WetLossLS_EOH            ', 'GCHPchem',
                          'WetLossLS_DST4           ', 'GCHPchem',
                          'WetLossLS_DST3           ', 'GCHPchem',
                          'WetLossLS_DST2           ', 'GCHPchem',
                          'WetLossLS_DST1           ', 'GCHPchem',
                          'WetLossLS_CH2O           ', 'GCHPchem',
                          'WetLossLS_BrSALC         ', 'GCHPchem',
                          'WetLossLS_BrSALA         ', 'GCHPchem',
                          'WetLossLS_BrCl           ', 'GCHPchem',
                          'WetLossLS_Br2            ', 'GCHPchem',
                          'WetLossLS_BCPO           ', 'GCHPchem',
                          'WetLossLS_BCPI           ', 'GCHPchem',
                          'WetLossLS_ATOOH          ', 'GCHPchem',
                          #'WetLossLS_ASOG3          ', 'GCHPchem',
                          #'WetLossLS_ASOG2          ', 'GCHPchem',
                          #'WetLossLS_ASOG1          ', 'GCHPchem',
                          #'WetLossLS_ASOAN          ', 'GCHPchem',
                          #'WetLossLS_ASOA3          ', 'GCHPchem',
                          #'WetLossLS_ASOA2          ', 'GCHPchem',
                          #'WetLossLS_ASOA1          ', 'GCHPchem',
                          'WetLossLS_ALD2           ', 'GCHPchem',
                          'WetLossLS_AERI           ', 'GCHPchem',
                          'WetLossLS_ACTA           ', 'GCHPchem',
::
