EXPID:  OutputDir/GEOSChem
EXPDSC: GEOS-Chem_devel
CoresPerNode: 6
VERSION: 1

#==============================================================================
# Define output grids different from the native cubed sphere in this section.
# Each diagnostics collection will be output on the native resolution cubed
# sphere grid unless a different grid is configured. A few examples are
# provided below.
#
# To use a grid for a specific collection, include the 'grid_label' field
# in the collection definition. For example, 
#
#   SpeciesConc.grid_label:   REGIONAL1x1
#
# If you are outputting on a lat/lon grid, be sure to specify conservative
# regridding. Otherwise regridding will be bi-linear.
#
#   SpeciesConc.conservative: 1
#
#==============================================================================
GRID_LABELS: PE24x144-CF
             PC360x181-DC
             REGIONAL1x1
    ::

    # Example of cubed-sphere grid at c24 resolution
    PE24x144-CF.GRID_TYPE: Cubed-Sphere
    PE24x144-CF.IM_WORLD: 24
    PE24x144-CF.JM_WORLD: 144
    PE24x144-CF.LM: 72

    # Example of lat-lon global grid at 1x1 resolution
    PC360x181-DC.GRID_TYPE: LatLon
    PC360x181-DC.IM_WORLD: 360
    PC360x181-DC.JM_WORLD: 181
    PC360x181-DC.POLE: PC
    PC360x181-DC.DATELINE: DC
    PC360x181-DC.LM: 72

    # Example of lat-lon regional grid at 1x1 resolution
    REGIONAL1x1.GRID_TYPE: LatLon
    REGIONAL1x1.IM_WORLD: 80
    REGIONAL1x1.JM_WORLD: 40
    REGIONAL1x1.POLE: XY
    REGIONAL1x1.DATELINE: XY
    REGIONAL1x1.LON_RANGE:   0 80
    REGIONAL1x1.LAT_RANGE: -30 10
    REGIONAL1x1.LM: 72

#==============================================================================
# Declare collection names and toggle on/off with #
#==============================================================================
COLLECTIONS:  'SpeciesConc',
::
#==============================================================================
# Define collections
# The rest of this file consists of collection definitions.
# Above collections whose declarations are commented out will be ignored.
# You can skip individual diagnostics by commenting them out.
#
# WARNING: Frequency, duration, and mode will be over-written with
# settings in runConfig.sh. Edit those settings there. Add collections
# as needed to that file as needed or edit in place new collections here.
#
# NOTES:
#    (1) See the GRID_LABELS sections above for details about output grids
#    (2) To output a reduced set of levels, use the levels keyword, e.g.:
#           SpeciesConc.levels: 1 2 3
#
#==============================================================================
  SpeciesConc.template:       '%y4%m2%d2_%h2%n2z.nc4',
  SpeciesConc.format:         'CFIO',
  SpeciesConc.timestampStart: .true.
  SpeciesConc.monthly:        1
  SpeciesConc.frequency:      010000
  SpeciesConc.duration:       240000
  SpeciesConc.mode:           'time-averaged'
  SpeciesConc.fields:         'SpeciesConc_O3           ', 'GCHPchem',
                              'SpeciesConc_O3Strat      ', 'GCHPchem',
                              'SpeciesConc_O3ut         ', 'GCHPchem',
                              'SpeciesConc_O3mt         ', 'GCHPchem',
                              'SpeciesConc_O3row        ', 'GCHPchem',
                              'SpeciesConc_O3pcbl       ', 'GCHPchem',
                              'SpeciesConc_O3nabl       ', 'GCHPchem',
                              'SpeciesConc_O3atbl       ', 'GCHPchem',
                              'SpeciesConc_O3eubl       ', 'GCHPchem',
                              'SpeciesConc_O3afbl       ', 'GCHPchem',
                              'SpeciesConc_O3asbl       ', 'GCHPchem',
                              'SpeciesConc_O3init       ', 'GCHPchem',
                              'SpeciesConc_O3usa        ', 'GCHPchem',
::