#------------------------------------------------------------------------------
#                  Harmonized Emissions Component (HEMCO)                     !
#------------------------------------------------------------------------------
#BOP
#
# !MODULE: HEMCO_Config.rc
#
# !DESCRIPTION: Contains configuration information for HEMCO. Define the
#  emissions inventories and corresponding file paths here. Entire
#  configuration files can be inserted into this configuration file with
#  an '>>>include' statement, e.g. '>>>include HEMCO\_Config\_test.rc'
#  The settings of include-files will be ignored.
#\\
#\\
# !REMARKS:
#  See The HEMCO User's Guide for file details:
#    http://wiki.geos-chem.org/The_HEMCO_User%27s_Guide
#
# !REVISION HISTORY:
#  See https://github.com/geoschem/geos-chem for complete history
#EOP
#------------------------------------------------------------------------------
#BOC
###############################################################################
### BEGIN SECTION SETTINGS
###############################################################################

ROOT:                        /n/holyscratch01/external_repos/GEOS-CHEM/gcgrid/data/ExtData/HEMCO
METDIR:                      not_used
GCAPSCENARIO:                not_used
GCAPVERTRES:                 47
Logfile:                     *
DiagnFile:                   HEMCO_Diagn.rc
DiagnPrefix:                 ./HEMCO_diagnostics
DiagnFreq:                   Monthly
Wildcard:                    *
Separator:                   /
Unit tolerance:              1
Negative values:             0
Only unitless scale factors: false
Verbose:                     0
Warnings:                    1

### END SECTION SETTINGS ###

###############################################################################
### BEGIN SECTION EXTENSION SWITCHES
###############################################################################
# ExtNr ExtName                on/off  Species  Years avail.
0       Base                   : on    *
# ----- MAIN SWITCHES ---------------------------------------------------------
    --> EMISSIONS              :       true
    --> CHEMISTRY_INPUT        :       true
# ----- RESTART FIELDS --------------------------------------------------------
    --> HEMCO_RESTART          :       true
# ----- REGIONAL INVENTORIES --------------------------------------------------
    --> APEI                   :       false    # 1989-2014
    --> NEI2016_MONMEAN        :       false    # 2002-2020
    --> DICE_Africa            :       false    # 2013
# ----- GLOBAL INVENTORIES ----------------------------------------------------
    --> CEDSv2                 :       true     # 1750-2019
    --> CEDS_GBDMAPS           :       false    # 1970-2017
    --> CEDS_GBDMAPS_byFuelType:       false    # 1970-2017
    --> EDGARv43               :       false    # 1970-2010
    --> HTAPv3                 :       false    # 2000-2018
    --> GEIA_NH3               :       true     # 1990
    --> SEABIRD_NH3            :       true     # 1990
    --> POET_EOH               :       false    # 1985
    --> TZOMPASOSA_C2H6        :       true     # 2010
    --> XIAO_C3H8              :       true     # 1985
    --> LIANG_BROMOCARB        :       true     # 2000
    --> ORDONEZ_IODOCARB       :       true     # 2000
    --> DECAYING_PLANTS        :       true     # 1985
    --> AFCID                  :       true     # 2015
# ----- AIRCRAFT EMISSIONS ----------------------------------------------------
# There are 3 switches:
#
#  1. AEIC2019_DAILY selects daily AEIC 2019 emissions.  For most simulations,
#     this is not recommended due to the amount of computational overhead
#     that will be incurred in regridding.  But this may be useful for
#     research purposes.  Recommended setting: "AEIC2019_DAILY: false".
#
#  2. AEIC2019_MONMEAN selects monthly-mean AEIC 2019 emisisons, which will
#     incur much less computational overhaead.  This options should suffice
#     for most simulations.  Recommended setting "AEIC2019_MONMEAN: true".
#
#  3. AEIC_SCALE_1990_2019: If "false", the AEIC 2019 data from the year
#     2019 alone will be used.  This will yield a "best estimate" of
#     aviation emisssion. This could be important because simply scaling
#     aviation emissions up and down is rather nonphysical.  But if
#     AEIC_SCALE_1990_2019 is set to true, then aviation emissions for
#     1990 to 2019 are estimated by:
#
#     a. Scaling ALL aviation emissions based on the growth in fuelburn
#        from 1990 to 2019* estimated by Lee et al. (2021); and
#
#     b. Scaling aviation NOx emissions by an additional factor to reflect
#        the changes in the NOx emissions index over the same period as
#        reported by Lee et al. (2021).
#
#     Recommended setting: "AEIC_SCALE_1990_2019: true"
#
# See additional notes in the AEIC scale factor section below.
#------------------------------------------------------------------------------
    --> AEIC2019_DAILY         :       false    # 2019 (daily data)
    --> AEIC2019_MONMEAN       :       true     # 2019 (monthly-mean data)
    --> AEIC_SCALE_1990_2019   :       true     # Scale to year in 1990-2019
# ----- SHIP EMISSIONS --------------------------------------------------------
    --> SHIP                   :       true
    --> CEDSv2_SHIP            :       true     # 1750-2017
    --> CEDS_GBDMAPS_SHIP      :       false    # 1970-2017
    --> CEDS_GBDMAPS_SHIP_byFuelType:  false    # 1970-2017
    --> HTAPv3_SHIP            :       false    # 2000-2018
    --> ICOADS_SHIP            :       false    # 2002
    --> ARCTAS_SHIP            :       false    # 2008
    --> CORBETT_SHIP           :       false    # 1985
# ----- RCP FUTURE EMISSIONS --------------------------------------------------
    --> RCP_3PD                :       false    # 2005-2100
    --> RCP_45                 :       false    # 2005-2100
    --> RCP_60                 :       false    # 2005-2100
    --> RCP_85                 :       false    # 2005-2100
# ----- CMIP6 ANTHRO EMISSIONS / BOUNDARY CONDITIONS --------------------------
#   Set GCAPSCENARIO (e.g., HIST, SSP585) above in SECTION SETTINGS
    --> CMIP6_SFC_BC           :       false    # 1750-2100
    --> CMIP6_SFC_LAND_ANTHRO  :       false    # 1850-2100
    --> CMIP6_AIRCRAFT         :       false    # 1850-2100
    --> CMIP6_SHIP             :       false    # 1850-2100
# ----- BIOMASS BURNING EMISSIONS ---------------------------------------------
    --> QFED2                  :       false    # 2000-2020
    --> GFAS                   :       false    # 2003-2021
    --> BB4MIPS                :       false    # 1850-2100
# ----- OFFLINE EMISSIONS -----------------------------------------------------
# To use online emissions instead set the offline emissions to 'false' and the
# corresponding HEMCO extension to 'on':
#   OFFLINE_DUST        - DustDead or DustGinoux
#   OFFLINE_BIOGENICVOC - MEGAN
#    - Note: MEGAN must always be on for species not in OFFLINE_BIOGENICVOC
#   OFFLINE_SEASALT     - SeaSalt
#   OFFLINE_SOILNOX     - SoilNOx
#
# NOTE: When switching between offline and online emissions, make sure to also
# update ExtNr and Cat in HEMCO_Diagn.rc to properly save out emissions for
# any affected species.
#------------------------------------------------------------------------------
    --> OFFLINE_DUST           :       false     # 1980-2021
    --> OFFLINE_BIOGENICVOC    :       false     # 1980-2021
    --> OFFLINE_SEASALT        :       false     # 1980-2021
    -->  CalcBrSeasalt         :       false
    --> OFFLINE_SOILNOX        :       false     # 1980-2021
# ----- NON-EMISSIONS DATA ----------------------------------------------------
    --> UVALBEDO               :       true     # 1985
    --> CCM_STRAT_Bry          :       true     # 2007
    --> GMI_OH                 :       true     # 2005
    --> GMI_PROD_LOSS          :       true     # 2005
    --> OMOC_RATIO             :       false    # 2010
    --> GMD_SFC_CH4            :       true     # 1979-2020
    --> CMIP6_SFC_CH4          :       false    # 1750-1978
    --> OLSON_LANDMAP          :       true     # 1985
    --> YUAN_MODIS_LAI         :       true     # 2000-2020
    --> RRTMG                  :       false    # 2002
    --> SfcVMR                 :       true     # 1750-2014
    --> OCEAN_O3_DRYDEP        :       true     # 1985
# -----------------------------------------------------------------------------
100     Custom                 : off   -
101     SeaFlux                : on    DMS/ACET/ALD2/MENO3/ETNO3/MOH
102     ParaNOx                : off   NO/NO2/O3/HNO3
    --> LUT data format        :       nc
    --> LUT source dir         :       $ROOT/PARANOX/v2015-02
103     LightNOx               : on    NO
    --> CDF table              :       $ROOT/LIGHTNOX/v2014-07/light_dist.ott2010.dat
104     SoilNOx                : on    NO
    --> Use fertilizer NOx     :       true
105     DustDead               : on    DST1/DST2/DST3/DST4
# Replace @MASS_TUNING_FACTOR with value matching run resolution
#C24  --> Mass tuning factor     : 6.0e-4
#C48  --> Mass tuning factor     : 5.0416e-4
#C90  --> Mass tuning factor     : 4.0e-4
#C180 --> Mass tuning factor     : 3.23e-4
#C360 --> Mass tuning factor     : 2.35e-4
#C720 --> Mass tuning factor     : 2.3e-4
    --> Mass tuning factor     :       2.35e-4
106     DustGinoux             : off   DST1/DST2/DST3/DST4
107     SeaSalt                : on    SALA/SALC/SALACL/SALCCL/SALAAL/SALCAL/BrSALA/BrSALC/MOPO/MOPI
    --> SALA lower radius      :       0.01
    --> SALA upper radius      :       0.5
    --> SALC lower radius      :       0.5
    --> SALC upper radius      :       8.0
    --> Reduce SS cold water   :       true
    --> Blowing Snow SS        :       true
    --> NH FYI snow salinity   :       0.1
    --> NH MYI snow salinity   :       0.05
    --> SH FYI snow salinity   :       0.03
    --> SH MYI snow salinity   :       0.015
    --> NH snow age            :       3.0
    --> SH snow age            :       1.5
    --> N per snowflake        :       5.0
    --> Model sea salt Br-     :       false
    --> Br- mass ratio         :       2.11e-3
108     MEGAN                  : on    ISOP/ACET/PRPE/C2H4/ALD2/MOH/EOH/MTPA/MTPO/LIMO/SESQ/SOAP/SOAS
    --> Isoprene scaling       :       1.0
    --> CO2 inhibition         :       true
    --> CO2 conc (ppmv)        :       390.0
    --> Isoprene to SOAP       :       0.015
    --> Isoprene to SOAS       :       0.015
    --> Monoterp to SOAP       :       0.050
    --> Monoterp to SOAS       :       0.050
    --> Othrterp to SOAP       :       0.050
    --> Othrterp to SOAS       :       0.050
111     GFED                   : on    NO/CO/ALK4/ACET/MEK/ALD2/PRPE/C2H2/C2H4/C3H8/CH2O/C2H6/SO2/NH3/BCPO/BCPI/OCPO/OCPI/POG1/POG2/MTPA/BENZ/TOLU/XYLE/NAP/EOH/MOH/SOAP
    --> GFED4                  :       true
    --> GFED_daily             :       false
    --> GFED_3hourly           :       false
    --> Scaling_CO             :       1.05
    --> Scaling_NAP            :       2.75e-4
    --> hydrophilic BC         :       0.2
    --> hydrophilic OC         :       0.5
    --> fraction POG1          :       0.49
    --> CO to SOAP             :       0.013
    --> GFED_subgrid_coag      :       false
#see the note near scale factor 281 for the source of this emis factor
114     FINN                   : off   NO/CO/ALK4/ACET/MEK/ALD2/PRPE/C2H2/C2H4/C3H8/CH2O/C2H6/SO2/NH3/BCPI/BCPO/OCPI/OCPO/GLYC/HAC/SOAP
    --> FINN_daily             :       false
    --> Scaling_CO             :       1.0
    --> Scaling_SOAP           :       0.013
    --> hydrophilic BC         :       0.2
    --> hydrophilic OC         :       0.5
    --> FINN_subgrid_coag      :       false
115     DustAlk                : off   DSTAL1/DSTAL2/DSTAL3/DSTAL4
117     Volcano                : on    SO2
    --> Volcano_Source         :       AeroCom
    --> Volcano_Table          :       $ROOT/VOLCANO/v2021-09/$YYYY/$MM/so2_volcanic_emissions_Carns.$YYYY$MM$DD.rc
    --> Volcano_Climatology    :       $ROOT/VOLCANO/v2021-09/so2_volcanic_emissions_CARN_v202005.degassing_only.rc
120     Inorg_Iodine           : on    HOI/I2
    --> Emit HOI               :       true
    --> Emit I2                :       true
130     TOMAS_Jeagle           : off   SS1/SS2/SS3/SS4/SS5/SS6/SS7/SS8/SS9/SS10/SS11/SS12/SS13/SS14/SS15/SS16/SS17/SS18/SS19/SS20/SS21/SS22/SS23/SS24/SS25/SS26/SS27/SS28/SS29/SS30/SS31/SS32/SS33/SS34/SS35/SS36/SS37/SS38/SS39/SS40
131     TOMAS_DustDead         : off   DUST1/DUST2/DUST3/DUST4/DUST5/DUST6/DUST7/DUST8/DUST9/DUST10/DUST11/DUST12/DUST13/DUST14/DUST15/DUST16/DUST17/DUST18/DUST19/DUST20/DUST21/DUST22/DUST23/DUST24/DUST25/DUST26/DUST27/DUST28/DUST29/DUST30/DUST31/DUST32/DUST33/DUST34/DUST35/DUST36/DUST37/DUST38/DUST39/DUST40
    --> Mass tuning factor     :       4.7586e-4
### END SECTION EXTENSION SWITCHES ###

###############################################################################
### BEGIN SECTION BASE EMISSIONS
###############################################################################

# ExtNr Name sourceFile sourceVar sourceTime C/R/E SrcDim SrcUnit Species ScalIDs Cat Hier

(((EMISSIONS

#==============================================================================
# --- APEI (Canada) ---
#==============================================================================
(((APEI
0 APEI_NO   $ROOT/APEI/v2016-11/APEI.0.1x0.1.nc NOx 1989-2014/1/1/0 RF xy kg/m2/s NO   25/1002/115    1 30
0 APEI_CO   $ROOT/APEI/v2016-11/APEI.0.1x0.1.nc CO  1989-2014/1/1/0 RF xy kg/m2/s CO   26/52/1002     1 30
0 APEI_SOAP -                                   -   -               -  -  -       SOAP 26/52/1002/280 1 30
0 APEI_SO2  $ROOT/APEI/v2016-11/APEI.0.1x0.1.nc SOx 1989-2014/1/1/0 RF xy kg/m2/s SO2  60/1002        1 30
0 APEI_SO4  -                                   -   -               -  -  -       SO4  60/65/1002     1 30
0 APEI_pFe  -                                   -   -               -  -  -       pFe  60/68/1002     1 30
0 APEI_NH3  $ROOT/APEI/v2016-11/APEI.0.1x0.1.nc NH3 1989-2014/1/1/0 RF xy kg/m2/s NH3  1002           1 30
0 APEI_BCPI $ROOT/APEI/v2016-11/APEI.0.1x0.1.nc EC  1989-2014/1/1/0 RF xy kg/m2/s BCPI 70/1002        1 30
0 APEI_BCPO $ROOT/APEI/v2016-11/APEI.0.1x0.1.nc EC  1989-2014/1/1/0 RF xy kg/m2/s BCPO 71/1002        1 30
0 APEI_OCPI $ROOT/APEI/v2016-11/APEI.0.1x0.1.nc OC  1989-2014/1/1/0 RF xy kg/m2/s OCPI 72/1002        1 30
0 APEI_OCPO $ROOT/APEI/v2016-11/APEI.0.1x0.1.nc OC  1989-2014/1/1/0 RF xy kg/m2/s OCPO 73/1002        1 30
0 APEI_POG1 -                                       -    -          -  -  -       POG1 74/76/1002     1 30
0 APEI_POG2 -                                       -    -          -  -  -       POG2 74/77/1002     1 30
)))APEI

#==============================================================================
# --- EPA NEI2016 v1 (USA) ---
#
# NOTES:
#  * Barron Henderson wrote, "The EPA emission modeling platform always
#    includes our best estimate of that year's emissions for Canada and Mexico
#    (othpt, othar, ptfire_oth). Using that estimate is likely good. However,
#    that can lead to a discontinuity in Mexico and Canada."
#    - By default only emissions over the CONUS are used (via Mask #1007)
#    - To include emissions over Canada and Mexico, users may revert to the old
#      US mask file $ROOT/MASKS/v2018-09/USA_LANDMASK_NEI2011_0.1x0.1.20160921.nc
#  * The base year of these emissions is 2016 and emissions are scaled to
#    2002-2020 using data from the EPA Trends Report for Tier 1 CAPS (obtained
#    21 Sep 2021).
#    - See NEI2016/v2021-06/national_tier1_caps+HEMCOscaling.xlsx for details.
#    - Cl2 and HCl emissions are only available for 2016 because those species
#      aren't included in the Tier 1 CAPS file/
#==============================================================================
(((NEI2016_MONMEAN
0 EPA16_BCPI__afdustPEC          $ROOT/NEI2016/v2021-06/2016fh_16j_afdust_adj_0pt1degree_month_$MM.ncf                 PEC        2002-2020/1-12/1/0 RF xyz  kg/m2/s    BCPI   26/221/256/1007/70     1 50
0 EPA16_BCPO__afdustPEC          $ROOT/NEI2016/v2021-06/2016fh_16j_afdust_adj_0pt1degree_month_$MM.ncf                 PEC        2002-2020/1-12/1/0 RF xyz  kg/m2/s    BCPO   26/221/256/1007/71     1 50
0 EPA16_HNO4__afdustPNA          $ROOT/NEI2016/v2021-06/2016fh_16j_afdust_adj_0pt1degree_month_$MM.ncf                 PNA        2002-2020/1-12/1/0 RF xyz  kg/m2/s    HNO4   26/213/251/1007        1 50
0 EPA16_NH4__afdustPNH4          $ROOT/NEI2016/v2021-06/2016fh_16j_afdust_adj_0pt1degree_month_$MM.ncf                 PNH4       2002-2020/1-12/1/0 RF xyz  kg/m2/s    NH4    26/218/255/1007        1 50
0 EPA16_NIT__afdustPNO3          $ROOT/NEI2016/v2021-06/2016fh_16j_afdust_adj_0pt1degree_month_$MM.ncf                 PNO3       2002-2020/1-12/1/0 RF xyz  kg/m2/s    NIT    26/218/255/1007        1 50
0 EPA16_OCPI__afdustPOC          $ROOT/NEI2016/v2021-06/2016fh_16j_afdust_adj_0pt1degree_month_$MM.ncf                 POC        2002-2020/1-12/1/0 RF xyz  kg/m2/s    OCPI   26/222/256/1007/72     1 50
0 EPA16_OCPO__afdustPOC          $ROOT/NEI2016/v2021-06/2016fh_16j_afdust_adj_0pt1degree_month_$MM.ncf                 POC        2002-2020/1-12/1/0 RF xyz  kg/m2/s    OCPO   26/222/256/1007/73     1 50
0 EPA16_POG1__afdustPOC          -                                                                                     -          -                  -  -    -          POG1   26/222/256/1007/74/76  1 50
0 EPA16_POG2__afdustPOC          -                                                                                     -          -                  -  -    -          POG2   26/222/256/1007/74/77  1 50
0 EPA16_SO4__afdustPSO4          $ROOT/NEI2016/v2021-06/2016fh_16j_afdust_adj_0pt1degree_month_$MM.ncf                 PSO4       2002-2020/1-12/1/0 RF xyz  kg/m2/s    SO4    26/219/255/1007        1 50
0 EPA16_ACET__agACET             $ROOT/NEI2016/v2021-06/2016fh_16j_ag_0pt1degree_month_$MM.ncf                         ACET       2002-2020/1-12/1/0 RF xyz  kg/m2/s    ACET   26/213/254/1007        1 50
0 EPA16_ALD2__agALD2             $ROOT/NEI2016/v2021-06/2016fh_16j_ag_0pt1degree_month_$MM.ncf                         ALD2       2002-2020/1-12/1/0 RF xyz  kg/m2/s    ALD2   26/213/254/1007        1 50
0 EPA16_RCHO__agALDX             $ROOT/NEI2016/v2021-06/2016fh_16j_ag_0pt1degree_month_$MM.ncf                         ALDX       2002-2020/1-12/1/0 RF xyz  kg/m2/s    RCHO   26/213/254/1007        1 50
0 EPA16_BENZ__agBENZ             $ROOT/NEI2016/v2021-06/2016fh_16j_ag_0pt1degree_month_$MM.ncf                         BENZ       2002-2020/1-12/1/0 RF xyz  kg/m2/s    BENZ   26/213/254/1007        1 50
0 EPA16_C2H4__agETH              $ROOT/NEI2016/v2021-06/2016fh_16j_ag_0pt1degree_month_$MM.ncf                         ETH        2002-2020/1-12/1/0 RF xyz  kg/m2/s    C2H4   26/213/254/1007        1 50
0 EPA16_C2H6__agETHA             $ROOT/NEI2016/v2021-06/2016fh_16j_ag_0pt1degree_month_$MM.ncf                         ETHA       2002-2020/1-12/1/0 RF xyz  kg/m2/s    C2H6   26/217/254/1007        1 50
0 EPA16_EOH__agETOH              $ROOT/NEI2016/v2021-06/2016fh_16j_ag_0pt1degree_month_$MM.ncf                         ETOH       2002-2020/1-12/1/0 RF xyz  kg/m2/s    EOH    26/213/254/1007        1 50
0 EPA16_CH2O__agFORM             $ROOT/NEI2016/v2021-06/2016fh_16j_ag_0pt1degree_month_$MM.ncf                         FORM       2002-2020/1-12/1/0 RF xyz  kg/m2/s    CH2O   26/213/254/1007        1 50
0 EPA16_PRPE__agIOLE             $ROOT/NEI2016/v2021-06/2016fh_16j_ag_0pt1degree_month_$MM.ncf                         IOLE       2002-2020/1-12/1/0 RF xyz  kg/m2/s    PRPE   26/215/254/1007        1 50
0 EPA16_MEK__agKET               $ROOT/NEI2016/v2021-06/2016fh_16j_ag_0pt1degree_month_$MM.ncf                         KET        2002-2020/1-12/1/0 RF xyz  kg/m2/s    MEK    26/214/254/1007        1 50
0 EPA16_MOH__agMEOH              $ROOT/NEI2016/v2021-06/2016fh_16j_ag_0pt1degree_month_$MM.ncf                         MEOH       2002-2020/1-12/1/0 RF xyz  kg/m2/s    MOH    26/213/254/1007        1 50
0 EPA16_NH3__agNH3               $ROOT/NEI2016/v2021-06/2016fh_16j_ag_0pt1degree_month_$MM.ncf                         NH3        2002-2020/1-12/1/0 RF xyz  kg/m2/s    NH3    26/213/253/1007        1 50
0 EPA16_PRPE__agOLE              $ROOT/NEI2016/v2021-06/2016fh_16j_ag_0pt1degree_month_$MM.ncf                         OLE        2002-2020/1-12/1/0 RF xyz  kg/m2/s    PRPE   26/215/254/1007        1 50
0 EPA16_ALK4__agPAR              $ROOT/NEI2016/v2021-06/2016fh_16j_ag_0pt1degree_month_$MM.ncf                         PAR        2002-2020/1-12/1/0 RF xyz  kg/m2/s    ALK4   26/212/254/1007        1 50
0 EPA16_C3H8__agPRPA             $ROOT/NEI2016/v2021-06/2016fh_16j_ag_0pt1degree_month_$MM.ncf                         PRPA       2002-2020/1-12/1/0 RF xyz  kg/m2/s    C3H8   26/216/254/1007        1 50
0 EPA16_TOLU__agTOL              $ROOT/NEI2016/v2021-06/2016fh_16j_ag_0pt1degree_month_$MM.ncf                         TOL        2002-2020/1-12/1/0 RF xyz  kg/m2/s    TOLU   26/213/254/1007        1 50
0 EPA16_XYLE__agXYLMN            $ROOT/NEI2016/v2021-06/2016fh_16j_ag_0pt1degree_month_$MM.ncf                         XYLMN      2002-2020/1-12/1/0 RF xyz  kg/m2/s    XYLE   26/213/254/1007        1 50
0 EPA16_ACET__airportsACET       $ROOT/NEI2016/v2021-06/2016fh_16j_airports_0pt1degree_month_$MM.ncf                   ACET       2002-2020/1-12/1/0 RF xyz  kg/m2/s    ACET   26/213/254/1007        1 50
0 EPA16_MACR__airportsACROLEIN   $ROOT/NEI2016/v2021-06/2016fh_16j_airports_0pt1degree_month_$MM.ncf                   ACROLEIN   2002-2020/1-12/1/0 RF xyz  kg/m2/s    MACR   26/213/254/1007        1 50
0 EPA16_ALD2__airportsALD2       $ROOT/NEI2016/v2021-06/2016fh_16j_airports_0pt1degree_month_$MM.ncf                   ALD2       2002-2020/1-12/1/0 RF xyz  kg/m2/s    ALD2   26/213/254/1007        1 50
0 EPA16_RCHO__airportsALDX       $ROOT/NEI2016/v2021-06/2016fh_16j_airports_0pt1degree_month_$MM.ncf                   ALDX       2002-2020/1-12/1/0 RF xyz  kg/m2/s    RCHO   26/213/254/1007        1 50
0 EPA16_BENZ__airportsBENZ       $ROOT/NEI2016/v2021-06/2016fh_16j_airports_0pt1degree_month_$MM.ncf                   BENZ       2002-2020/1-12/1/0 RF xyz  kg/m2/s    BENZ   26/213/254/1007        1 50
0 EPA16_CO__airportsCO           $ROOT/NEI2016/v2021-06/2016fh_16j_airports_0pt1degree_month_$MM.ncf                   CO         2002-2020/1-12/1/0 RF xyz  kg/m2/s    CO     26/211/252/1007        1 50
0 EPA16_SOAP__airportsSOAP       -                                                                                     -          -                  -  -    -          SOAP   26/211/252/1007/280    1 50
0 EPA16_C2H4__airportsETH        $ROOT/NEI2016/v2021-06/2016fh_16j_airports_0pt1degree_month_$MM.ncf                   ETH        2002-2020/1-12/1/0 RF xyz  kg/m2/s    C2H4   26/213/254/1007        1 50
0 EPA16_C2H6__airportsETHA       $ROOT/NEI2016/v2021-06/2016fh_16j_airports_0pt1degree_month_$MM.ncf                   ETHA       2002-2020/1-12/1/0 RF xyz  kg/m2/s    C2H6   26/217/254/1007        1 50
0 EPA16_EOH__airportsETOH        $ROOT/NEI2016/v2021-06/2016fh_16j_airports_0pt1degree_month_$MM.ncf                   ETOH       2002-2020/1-12/1/0 RF xyz  kg/m2/s    EOH    26/213/254/1007        1 50
0 EPA16_CH2O__airportsFORM       $ROOT/NEI2016/v2021-06/2016fh_16j_airports_0pt1degree_month_$MM.ncf                   FORM       2002-2020/1-12/1/0 RF xyz  kg/m2/s    CH2O   26/213/254/1007        1 50
0 EPA16_HNO2__airportsHONO       $ROOT/NEI2016/v2021-06/2016fh_16j_airports_0pt1degree_month_$MM.ncf                   HONO       2002-2020/1-12/1/0 RF xyz  kg/m2/s    HNO2   25/210/251/1007        1 50
0 EPA16_PRPE__airportsIOLE       $ROOT/NEI2016/v2021-06/2016fh_16j_airports_0pt1degree_month_$MM.ncf                   IOLE       2002-2020/1-12/1/0 RF xyz  kg/m2/s    PRPE   26/215/254/1007        1 50
0 EPA16_MEK__airportsKET         $ROOT/NEI2016/v2021-06/2016fh_16j_airports_0pt1degree_month_$MM.ncf                   KET        2002-2020/1-12/1/0 RF xyz  kg/m2/s    MEK    26/214/254/1007        1 50
0 EPA16_MOH__airportsMEOH        $ROOT/NEI2016/v2021-06/2016fh_16j_airports_0pt1degree_month_$MM.ncf                   MEOH       2002-2020/1-12/1/0 RF xyz  kg/m2/s    MOH    26/213/254/1007        1 50
0 EPA16_NO__airportsNO           $ROOT/NEI2016/v2021-06/2016fh_16j_airports_0pt1degree_month_$MM.ncf                   NO         2002-2020/1-12/1/0 RF xyz  kg/m2/s    NO     115/25/210/251/1007    1 50
0 EPA16_NO2__airportsNO2         $ROOT/NEI2016/v2021-06/2016fh_16j_airports_0pt1degree_month_$MM.ncf                   NO2        2002-2020/1-12/1/0 RF xyz  kg/m2/s    NO2    25/210/251/1007        1 50
0 EPA16_PRPE__airportsOLE        $ROOT/NEI2016/v2021-06/2016fh_16j_airports_0pt1degree_month_$MM.ncf                   OLE        2002-2020/1-12/1/0 RF xyz  kg/m2/s    PRPE   26/215/254/1007        1 50
0 EPA16_ALK4__airportsPAR        $ROOT/NEI2016/v2021-06/2016fh_16j_airports_0pt1degree_month_$MM.ncf                   PAR        2002-2020/1-12/1/0 RF xyz  kg/m2/s    ALK4   26/212/254/1007        1 50
0 EPA16_BCPI__airportsPEC        $ROOT/NEI2016/v2021-06/2016fh_16j_airports_0pt1degree_month_$MM.ncf                   PEC        2002-2020/1-12/1/0 RF xyz  kg/m2/s    BCPI   26/221/256/1007/70     1 50
0 EPA16_BCPO__airportsPEC        $ROOT/NEI2016/v2021-06/2016fh_16j_airports_0pt1degree_month_$MM.ncf                   PEC        2002-2020/1-12/1/0 RF xyz  kg/m2/s    BCPO   26/221/256/1007/71     1 50
0 EPA16_HNO4__airportsPNA        $ROOT/NEI2016/v2021-06/2016fh_16j_airports_0pt1degree_month_$MM.ncf                   PNA        2002-2020/1-12/1/0 RF xyz  kg/m2/s    HNO4   26/213/251/1007        1 50
0 EPA16_NH4__airportsPNH4        $ROOT/NEI2016/v2021-06/2016fh_16j_airports_0pt1degree_month_$MM.ncf                   PNH4       2002-2020/1-12/1/0 RF xyz  kg/m2/s    NH4    26/218/255/1007        1 50
0 EPA16_NIT__airportsPNO3        $ROOT/NEI2016/v2021-06/2016fh_16j_airports_0pt1degree_month_$MM.ncf                   PNO3       2002-2020/1-12/1/0 RF xyz  kg/m2/s    NIT    26/218/255/1007        1 50
0 EPA16_OCPI__airportsPOC        $ROOT/NEI2016/v2021-06/2016fh_16j_airports_0pt1degree_month_$MM.ncf                   POC        2002-2020/1-12/1/0 RF xyz  kg/m2/s    OCPI   26/222/256/1007/72     1 50
0 EPA16_OCPO__airportsPOC        $ROOT/NEI2016/v2021-06/2016fh_16j_airports_0pt1degree_month_$MM.ncf                   POC        2002-2020/1-12/1/0 RF xyz  kg/m2/s    OCPO   26/222/256/1007/73     1 50
0 EPA16_POG1__airportsPOC        -                                                                                     -          -                  -  -    -          POG1   26/222/256/1007/74/76  1 50
0 EPA16_POG2__airportsPOC        -                                                                                     -          -                  -  -    -          POG2   26/222/256/1007/74/77  1 50
0 EPA16_C3H8__airportsPRPA       $ROOT/NEI2016/v2021-06/2016fh_16j_airports_0pt1degree_month_$MM.ncf                   PRPA       2002-2020/1-12/1/0 RF xyz  kg/m2/s    C3H8   26/216/254/1007        1 50
0 EPA16_SO4__airportsPSO4        $ROOT/NEI2016/v2021-06/2016fh_16j_airports_0pt1degree_month_$MM.ncf                   PSO4       2002-2020/1-12/1/0 RF xyz  kg/m2/s    SO4    26/219/255/1007        1 50
0 EPA16_SO2__airportsSO2         $ROOT/NEI2016/v2021-06/2016fh_16j_airports_0pt1degree_month_$MM.ncf                   SO2        2002-2020/1-12/1/0 RF xyz  kg/m2/s    SO2    26/218/255/1007        1 50
0 EPA16_pFe__airportspFe         -                                                                                     -          -                  -  -    -          pFe    26/218/255/1007/69     1 50
0 EPA16_SO4__airportsSULF        $ROOT/NEI2016/v2021-06/2016fh_16j_airports_0pt1degree_month_$MM.ncf                   SULF       2002-2020/1-12/1/0 RF xyz  kg/m2/s    SO4    26/219/255/1007        1 50
0 EPA16_TOLU__airportsTOL        $ROOT/NEI2016/v2021-06/2016fh_16j_airports_0pt1degree_month_$MM.ncf                   TOL        2002-2020/1-12/1/0 RF xyz  kg/m2/s    TOLU   26/213/254/1007        1 50
0 EPA16_XYLE__airportsXYLMN      $ROOT/NEI2016/v2021-06/2016fh_16j_airports_0pt1degree_month_$MM.ncf                   XYLMN      2002-2020/1-12/1/0 RF xyz  kg/m2/s    XYLE   26/213/254/1007        1 50
0 EPA16_ACET__nonptACET          $ROOT/NEI2016/v2021-06/2016fh_16j_nonpt_0pt1degree_month_$MM.ncf                      ACET       2002-2020/1-12/1/0 RF xyz  kg/m2/s    ACET   26/213/254/1007        1 50
0 EPA16_MACR__nonptACROLEIN      $ROOT/NEI2016/v2021-06/2016fh_16j_nonpt_0pt1degree_month_$MM.ncf                      ACROLEIN   2002-2020/1-12/1/0 RF xyz  kg/m2/s    MACR   26/213/254/1007        1 50
0 EPA16_ALD2__nonptALD2          $ROOT/NEI2016/v2021-06/2016fh_16j_nonpt_0pt1degree_month_$MM.ncf                      ALD2       2002-2020/1-12/1/0 RF xyz  kg/m2/s    ALD2   26/213/254/1007        1 50
0 EPA16_RCHO__nonptALDX          $ROOT/NEI2016/v2021-06/2016fh_16j_nonpt_0pt1degree_month_$MM.ncf                      ALDX       2002-2020/1-12/1/0 RF xyz  kg/m2/s    RCHO   26/213/254/1007        1 50
0 EPA16_BENZ__nonptBENZ          $ROOT/NEI2016/v2021-06/2016fh_16j_nonpt_0pt1degree_month_$MM.ncf                      BENZ       2002-2020/1-12/1/0 RF xyz  kg/m2/s    BENZ   26/213/254/1007        1 50
0 EPA16_Cl2__nonptCL2            $ROOT/NEI2016/v2021-06/2016fh_16j_nonpt_0pt1degree_month_$MM.ncf                      CL2        2016/1-12/1/0      R  xyz  kg/m2/s    Cl2    1007                   1 50
0 EPA16_CO__nonptCO              $ROOT/NEI2016/v2021-06/2016fh_16j_nonpt_0pt1degree_month_$MM.ncf                      CO         2002-2020/1-12/1/0 RF xyz  kg/m2/s    CO     26/211/252/1007        1 50
0 EPA16_SOAP__nonptSOAP          -                                                                                     -          -                  -  -    -          SOAP   26/211/252/1007/280    1 50
0 EPA16_C2H4__nonptETH           $ROOT/NEI2016/v2021-06/2016fh_16j_nonpt_0pt1degree_month_$MM.ncf                      ETH        2002-2020/1-12/1/0 RF xyz  kg/m2/s    C2H4   26/213/254/1007        1 50
0 EPA16_C2H6__nonptETHA          $ROOT/NEI2016/v2021-06/2016fh_16j_nonpt_0pt1degree_month_$MM.ncf                      ETHA       2002-2020/1-12/1/0 RF xyz  kg/m2/s    C2H6   26/217/254/1007        1 50
0 EPA16_EOH__nonptETOH           $ROOT/NEI2016/v2021-06/2016fh_16j_nonpt_0pt1degree_month_$MM.ncf                      ETOH       2002-2020/1-12/1/0 RF xyz  kg/m2/s    EOH    26/213/254/1007        1 50
0 EPA16_CH2O__nonptFORM          $ROOT/NEI2016/v2021-06/2016fh_16j_nonpt_0pt1degree_month_$MM.ncf                      FORM       2002-2020/1-12/1/0 RF xyz  kg/m2/s    CH2O   26/213/254/1007        1 50
0 EPA16_HCl__nonptHCL            $ROOT/NEI2016/v2021-06/2016fh_16j_nonpt_0pt1degree_month_$MM.ncf                      HCL        2016/1-12/1/0      R  xyz  kg/m2/s    HCl    1007                   1 50
0 EPA16_HNO2__nonptHONO          $ROOT/NEI2016/v2021-06/2016fh_16j_nonpt_0pt1degree_month_$MM.ncf                      HONO       2002-2020/1-12/1/0 RF xyz  kg/m2/s    HNO2   25/210/251/1007        1 50
0 EPA16_PRPE__nonptIOLE          $ROOT/NEI2016/v2021-06/2016fh_16j_nonpt_0pt1degree_month_$MM.ncf                      IOLE       2002-2020/1-12/1/0 RF xyz  kg/m2/s    PRPE   26/215/254/1007        1 50
0 EPA16_MEK__nonptKET            $ROOT/NEI2016/v2021-06/2016fh_16j_nonpt_0pt1degree_month_$MM.ncf                      KET        2002-2020/1-12/1/0 RF xyz  kg/m2/s    MEK    26/214/254/1007        1 50
0 EPA16_MOH__nonptMEOH           $ROOT/NEI2016/v2021-06/2016fh_16j_nonpt_0pt1degree_month_$MM.ncf                      MEOH       2002-2020/1-12/1/0 RF xyz  kg/m2/s    MOH    26/213/254/1007        1 50
0 EPA16_NH3__nonptNH3            $ROOT/NEI2016/v2021-06/2016fh_16j_nonpt_0pt1degree_month_$MM.ncf                      NH3        2002-2020/1-12/1/0 RF xyz  kg/m2/s    NH3    26/213/253/1007        1 50
0 EPA16_NO__nonptNO              $ROOT/NEI2016/v2021-06/2016fh_16j_nonpt_0pt1degree_month_$MM.ncf                      NO         2002-2020/1-12/1/0 RF xyz  kg/m2/s    NO     115/25/210/251/1007    1 50
0 EPA16_NO2__nonptNO2            $ROOT/NEI2016/v2021-06/2016fh_16j_nonpt_0pt1degree_month_$MM.ncf                      NO2        2002-2020/1-12/1/0 RF xyz  kg/m2/s    NO2    25/210/251/1007        1 50
0 EPA16_PRPE__nonptOLE           $ROOT/NEI2016/v2021-06/2016fh_16j_nonpt_0pt1degree_month_$MM.ncf                      OLE        2002-2020/1-12/1/0 RF xyz  kg/m2/s    PRPE   26/215/254/1007        1 50
0 EPA16_ALK4__nonptPAR           $ROOT/NEI2016/v2021-06/2016fh_16j_nonpt_0pt1degree_month_$MM.ncf                      PAR        2002-2020/1-12/1/0 RF xyz  kg/m2/s    ALK4   26/212/254/1007        1 50
0 EPA16_BCPI__nonptPEC           $ROOT/NEI2016/v2021-06/2016fh_16j_nonpt_0pt1degree_month_$MM.ncf                      PEC        2002-2020/1-12/1/0 RF xyz  kg/m2/s    BCPI   26/221/256/1007/70     1 50
0 EPA16_BCPO__nonptPEC           $ROOT/NEI2016/v2021-06/2016fh_16j_nonpt_0pt1degree_month_$MM.ncf                      PEC        2002-2020/1-12/1/0 RF xyz  kg/m2/s    BCPO   26/221/256/1007/71     1 50
0 EPA16_HNO4__nonptPNA           $ROOT/NEI2016/v2021-06/2016fh_16j_nonpt_0pt1degree_month_$MM.ncf                      PNA        2002-2020/1-12/1/0 RF xyz  kg/m2/s    HNO4   26/213/251/1007        1 50
0 EPA16_NH4__nonptPNH4           $ROOT/NEI2016/v2021-06/2016fh_16j_nonpt_0pt1degree_month_$MM.ncf                      PNH4       2002-2020/1-12/1/0 RF xyz  kg/m2/s    NH4    26/218/255/1007        1 50
0 EPA16_NIT__nonptPNO3           $ROOT/NEI2016/v2021-06/2016fh_16j_nonpt_0pt1degree_month_$MM.ncf                      PNO3       2002-2020/1-12/1/0 RF xyz  kg/m2/s    NIT    26/218/255/1007        1 50
0 EPA16_OCPI__nonptPOC           $ROOT/NEI2016/v2021-06/2016fh_16j_nonpt_0pt1degree_month_$MM.ncf                      POC        2002-2020/1-12/1/0 RF xyz  kg/m2/s    OCPI   26/222/256/1007/72     1 50
0 EPA16_OCPO__nonptPOC           $ROOT/NEI2016/v2021-06/2016fh_16j_nonpt_0pt1degree_month_$MM.ncf                      POC        2002-2020/1-12/1/0 RF xyz  kg/m2/s    OCPO   26/222/256/1007/73     1 50
0 EPA16_POG1__nonptPOC           -                                                                                     -          -                  -  -    -          POG1   26/222/256/1007/74/76  1 50
0 EPA16_POG2__nonptPOC           -                                                                                     -          -                  -  -    -          POG2   26/222/256/1007/74/77  1 50
0 EPA16_C3H8__nonptPRPA          $ROOT/NEI2016/v2021-06/2016fh_16j_nonpt_0pt1degree_month_$MM.ncf                      PRPA       2002-2020/1-12/1/0 RF xyz  kg/m2/s    C3H8   26/216/254/1007        1 50
0 EPA16_SO4__nonptPSO4           $ROOT/NEI2016/v2021-06/2016fh_16j_nonpt_0pt1degree_month_$MM.ncf                      PSO4       2002-2020/1-12/1/0 RF xyz  kg/m2/s    SO4    26/219/255/1007        1 50
0 EPA16_SO2__nonptSO2            $ROOT/NEI2016/v2021-06/2016fh_16j_nonpt_0pt1degree_month_$MM.ncf                      SO2        2002-2020/1-12/1/0 RF xyz  kg/m2/s    SO2    26/218/255/1007        1 50
0 EPA16_pFe__nonptpFe            -                                                                                     -          -                  -  -    -          pFe    26/218/255/1007/69     1 50
0 EPA16_SO4__nonptSULF           $ROOT/NEI2016/v2021-06/2016fh_16j_nonpt_0pt1degree_month_$MM.ncf                      SULF       2002-2020/1-12/1/0 RF xyz  kg/m2/s    SO4    26/219/255/1007        1 50
0 EPA16_TOLU__nonptTOL           $ROOT/NEI2016/v2021-06/2016fh_16j_nonpt_0pt1degree_month_$MM.ncf                      TOL        2002-2020/1-12/1/0 RF xyz  kg/m2/s    TOLU   26/213/254/1007        1 50
0 EPA16_XYLE__nonptXYLMN         $ROOT/NEI2016/v2021-06/2016fh_16j_nonpt_0pt1degree_month_$MM.ncf                      XYLMN      2002-2020/1-12/1/0 RF xyz  kg/m2/s    XYLE   26/213/254/1007        1 50
0 EPA16_ACET__nonroadACET        $ROOT/NEI2016/v2021-06/2016fh_16j_nonroad_0pt1degree_month_$MM.ncf                    ACET       2002-2020/1-12/1/0 RF xyz  kg/m2/s    ACET   26/213/254/1007        1 50
0 EPA16_MACR__nonroadACROLEIN    $ROOT/NEI2016/v2021-06/2016fh_16j_nonroad_0pt1degree_month_$MM.ncf                    ACROLEIN   2002-2020/1-12/1/0 RF xyz  kg/m2/s    MACR   26/213/254/1007        1 50
0 EPA16_ALD2__nonroadALD2        $ROOT/NEI2016/v2021-06/2016fh_16j_nonroad_0pt1degree_month_$MM.ncf                    ALD2       2002-2020/1-12/1/0 RF xyz  kg/m2/s    ALD2   26/213/254/1007        1 50
0 EPA16_RCHO__nonroadALDX        $ROOT/NEI2016/v2021-06/2016fh_16j_nonroad_0pt1degree_month_$MM.ncf                    ALDX       2002-2020/1-12/1/0 RF xyz  kg/m2/s    RCHO   26/213/254/1007        1 50
0 EPA16_BENZ__nonroadBENZ        $ROOT/NEI2016/v2021-06/2016fh_16j_nonroad_0pt1degree_month_$MM.ncf                    BENZ       2002-2020/1-12/1/0 RF xyz  kg/m2/s    BENZ   26/213/254/1007        1 50
0 EPA16_CO__nonroadCO            $ROOT/NEI2016/v2021-06/2016fh_16j_nonroad_0pt1degree_month_$MM.ncf                    CO         2002-2020/1-12/1/0 RF xyz  kg/m2/s    CO     26/211/252/1007        1 50
0 EPA16_SOAP__nonroadSOAP        -                                                                                     -          -                  -  -    -          SOAP   26/211/252/1007/280    1 50
0 EPA16_C2H4__nonroadETH         $ROOT/NEI2016/v2021-06/2016fh_16j_nonroad_0pt1degree_month_$MM.ncf                    ETH        2002-2020/1-12/1/0 RF xyz  kg/m2/s    C2H4   26/213/254/1007        1 50
0 EPA16_C2H6__nonroadETHA        $ROOT/NEI2016/v2021-06/2016fh_16j_nonroad_0pt1degree_month_$MM.ncf                    ETHA       2002-2020/1-12/1/0 RF xyz  kg/m2/s    C2H6   26/217/254/1007        1 50
0 EPA16_EOH__nonroadETOH         $ROOT/NEI2016/v2021-06/2016fh_16j_nonroad_0pt1degree_month_$MM.ncf                    ETOH       2002-2020/1-12/1/0 RF xyz  kg/m2/s    EOH    26/213/254/1007        1 50
0 EPA16_CH2O__nonroadFORM        $ROOT/NEI2016/v2021-06/2016fh_16j_nonroad_0pt1degree_month_$MM.ncf                    FORM       2002-2020/1-12/1/0 RF xyz  kg/m2/s    CH2O   26/213/254/1007        1 50
0 EPA16_HNO2__nonroadHONO        $ROOT/NEI2016/v2021-06/2016fh_16j_nonroad_0pt1degree_month_$MM.ncf                    HONO       2002-2020/1-12/1/0 RF xyz  kg/m2/s    HNO2   25/210/251/1007        1 50
0 EPA16_PRPE__nonroadIOLE        $ROOT/NEI2016/v2021-06/2016fh_16j_nonroad_0pt1degree_month_$MM.ncf                    IOLE       2002-2020/1-12/1/0 RF xyz  kg/m2/s    PRPE   26/215/254/1007        1 50
0 EPA16_MEK__nonroadKET          $ROOT/NEI2016/v2021-06/2016fh_16j_nonroad_0pt1degree_month_$MM.ncf                    KET        2002-2020/1-12/1/0 RF xyz  kg/m2/s    MEK    26/214/254/1007        1 50
0 EPA16_MOH__nonroadMEOH         $ROOT/NEI2016/v2021-06/2016fh_16j_nonroad_0pt1degree_month_$MM.ncf                    MEOH       2002-2020/1-12/1/0 RF xyz  kg/m2/s    MOH    26/213/254/1007        1 50
0 EPA16_NH3__nonroadNH3          $ROOT/NEI2016/v2021-06/2016fh_16j_nonroad_0pt1degree_month_$MM.ncf                    NH3        2002-2020/1-12/1/0 RF xyz  kg/m2/s    NH3    26/213/253/1007        1 50
0 EPA16_NO__nonroadNO            $ROOT/NEI2016/v2021-06/2016fh_16j_nonroad_0pt1degree_month_$MM.ncf                    NO         2002-2020/1-12/1/0 RF xyz  kg/m2/s    NO     115/25/210/251/1007    1 50
0 EPA16_NO2__nonroadNO2          $ROOT/NEI2016/v2021-06/2016fh_16j_nonroad_0pt1degree_month_$MM.ncf                    NO2        2002-2020/1-12/1/0 RF xyz  kg/m2/s    NO2    25/210/251/1007        1 50
0 EPA16_PRPE__nonroadOLE         $ROOT/NEI2016/v2021-06/2016fh_16j_nonroad_0pt1degree_month_$MM.ncf                    OLE        2002-2020/1-12/1/0 RF xyz  kg/m2/s    PRPE   26/215/254/1007        1 50
0 EPA16_ALK4__nonroadPAR         $ROOT/NEI2016/v2021-06/2016fh_16j_nonroad_0pt1degree_month_$MM.ncf                    PAR        2002-2020/1-12/1/0 RF xyz  kg/m2/s    ALK4   26/212/254/1007        1 50
0 EPA16_BCPI__nonroadPEC         $ROOT/NEI2016/v2021-06/2016fh_16j_nonroad_0pt1degree_month_$MM.ncf                    PEC        2002-2020/1-12/1/0 RF xyz  kg/m2/s    BCPI   26/221/256/1007/70     1 50
0 EPA16_BCPO__nonroadPEC         $ROOT/NEI2016/v2021-06/2016fh_16j_nonroad_0pt1degree_month_$MM.ncf                    PEC        2002-2020/1-12/1/0 RF xyz  kg/m2/s    BCPO   26/221/256/1007/71     1 50
0 EPA16_HNO4__nonroadPNA         $ROOT/NEI2016/v2021-06/2016fh_16j_nonroad_0pt1degree_month_$MM.ncf                    PNA        2002-2020/1-12/1/0 RF xyz  kg/m2/s    HNO4   26/213/251/1007        1 50
0 EPA16_NH4__nonroadPNH4         $ROOT/NEI2016/v2021-06/2016fh_16j_nonroad_0pt1degree_month_$MM.ncf                    PNH4       2002-2020/1-12/1/0 RF xyz  kg/m2/s    NH4    26/218/255/1007        1 50
0 EPA16_NIT__nonroadPNO3         $ROOT/NEI2016/v2021-06/2016fh_16j_nonroad_0pt1degree_month_$MM.ncf                    PNO3       2002-2020/1-12/1/0 RF xyz  kg/m2/s    NIT    26/218/255/1007        1 50
0 EPA16_OCPI__nonroadPOC         $ROOT/NEI2016/v2021-06/2016fh_16j_nonroad_0pt1degree_month_$MM.ncf                    POC        2002-2020/1-12/1/0 RF xyz  kg/m2/s    OCPI   26/222/256/1007/72     1 50
0 EPA16_OCPO__nonroadPOC         $ROOT/NEI2016/v2021-06/2016fh_16j_nonroad_0pt1degree_month_$MM.ncf                    POC        2002-2020/1-12/1/0 RF xyz  kg/m2/s    OCPO   26/222/256/1007/73     1 50
0 EPA16_POG1__nonroadPOC         -                                                                                     -          -                  -  -    -          POG1   26/222/256/1007/74/76  1 50
0 EPA16_POG2__nonroadPOC         -                                                                                     -          -                  -  -    -          POG2   26/222/256/1007/74/77  1 50
0 EPA16_C3H8__nonroadPRPA        $ROOT/NEI2016/v2021-06/2016fh_16j_nonroad_0pt1degree_month_$MM.ncf                    PRPA       2002-2020/1-12/1/0 RF xyz  kg/m2/s    C3H8   26/216/254/1007        1 50
0 EPA16_SO4__nonroadPSO4         $ROOT/NEI2016/v2021-06/2016fh_16j_nonroad_0pt1degree_month_$MM.ncf                    PSO4       2002-2020/1-12/1/0 RF xyz  kg/m2/s    SO4    26/219/255/1007        1 50
0 EPA16_SO2__nonroadSO2          $ROOT/NEI2016/v2021-06/2016fh_16j_nonroad_0pt1degree_month_$MM.ncf                    SO2        2002-2020/1-12/1/0 RF xyz  kg/m2/s    SO2    26/218/255/1007        1 50
0 EPA16_pFe__nonroadspFe         -                                                                                     -          -                  -  -    -          pFe    26/218/255/1007/69     1 50
0 EPA16_SO4__nonroadSULF         $ROOT/NEI2016/v2021-06/2016fh_16j_nonroad_0pt1degree_month_$MM.ncf                    SULF       2002-2020/1-12/1/0 RF xyz  kg/m2/s    SO4    26/219/255/1007        1 50
0 EPA16_TOLU__nonroadTOL         $ROOT/NEI2016/v2021-06/2016fh_16j_nonroad_0pt1degree_month_$MM.ncf                    TOL        2002-2020/1-12/1/0 RF xyz  kg/m2/s    TOLU   26/213/254/1007        1 50
0 EPA16_XYLE__nonroadXYLMN       $ROOT/NEI2016/v2021-06/2016fh_16j_nonroad_0pt1degree_month_$MM.ncf                    XYLMN      2002-2020/1-12/1/0 RF xyz  kg/m2/s    XYLE   26/213/254/1007        1 50
0 EPA16_ACET__npogACET           $ROOT/NEI2016/v2021-06/2016fh_16j_np_oilgas_0pt1degree_month_$MM.ncf                  ACET       2002-2020/1-12/1/0 RF xyz  kg/m2/s    ACET   26/213/254/1007        1 50
0 EPA16_MACR__npogACROLEIN       $ROOT/NEI2016/v2021-06/2016fh_16j_np_oilgas_0pt1degree_month_$MM.ncf                  ACROLEIN   2002-2020/1-12/1/0 RF xyz  kg/m2/s    MACR   26/213/254/1007        1 50
0 EPA16_ALD2__npogALD2           $ROOT/NEI2016/v2021-06/2016fh_16j_np_oilgas_0pt1degree_month_$MM.ncf                  ALD2       2002-2020/1-12/1/0 RF xyz  kg/m2/s    ALD2   26/213/254/1007        1 50
0 EPA16_RCHO__npogALDX           $ROOT/NEI2016/v2021-06/2016fh_16j_np_oilgas_0pt1degree_month_$MM.ncf                  ALDX       2002-2020/1-12/1/0 RF xyz  kg/m2/s    RCHO   26/213/254/1007        1 50
0 EPA16_BENZ__npogBENZ           $ROOT/NEI2016/v2021-06/2016fh_16j_np_oilgas_0pt1degree_month_$MM.ncf                  BENZ       2002-2020/1-12/1/0 RF xyz  kg/m2/s    BENZ   26/213/254/1007        1 50
0 EPA16_Cl2__npogCL2             $ROOT/NEI2016/v2021-06/2016fh_16j_np_oilgas_0pt1degree_month_$MM.ncf                  CL2        2016/1-12/1/0      R  xyz  kg/m2/s    Cl2    1007                   1 50
0 EPA16_CO__npogCO               $ROOT/NEI2016/v2021-06/2016fh_16j_np_oilgas_0pt1degree_month_$MM.ncf                  CO         2002-2020/1-12/1/0 RF xyz  kg/m2/s    CO     26/211/252/1007        1 50
0 EPA16_SOAP__npogSOAP           -                                                                                     -          -                  -  -    -          SOAP   26/211/252/1007/280    1 50
0 EPA16_C2H4__npogETH            $ROOT/NEI2016/v2021-06/2016fh_16j_np_oilgas_0pt1degree_month_$MM.ncf                  ETH        2002-2020/1-12/1/0 RF xyz  kg/m2/s    C2H4   26/213/254/1007        1 50
0 EPA16_C2H6__npogETHA           $ROOT/NEI2016/v2021-06/2016fh_16j_np_oilgas_0pt1degree_month_$MM.ncf                  ETHA       2002-2020/1-12/1/0 RF xyz  kg/m2/s    C2H6   26/217/254/1007        1 50
0 EPA16_EOH__npogETOH            $ROOT/NEI2016/v2021-06/2016fh_16j_np_oilgas_0pt1degree_month_$MM.ncf                  ETOH       2002-2020/1-12/1/0 RF xyz  kg/m2/s    EOH    26/213/254/1007        1 50
0 EPA16_CH2O__npogFORM           $ROOT/NEI2016/v2021-06/2016fh_16j_np_oilgas_0pt1degree_month_$MM.ncf                  FORM       2002-2020/1-12/1/0 RF xyz  kg/m2/s    CH2O   26/213/254/1007        1 50
0 EPA16_HNO2__npogHONO           $ROOT/NEI2016/v2021-06/2016fh_16j_np_oilgas_0pt1degree_month_$MM.ncf                  HONO       2002-2020/1-12/1/0 RF xyz  kg/m2/s    HNO2   25/210/251/1007        1 50
0 EPA16_PRPE__npogIOLE           $ROOT/NEI2016/v2021-06/2016fh_16j_np_oilgas_0pt1degree_month_$MM.ncf                  IOLE       2002-2020/1-12/1/0 RF xyz  kg/m2/s    PRPE   26/215/254/1007        1 50
0 EPA16_MEK__npogKET             $ROOT/NEI2016/v2021-06/2016fh_16j_np_oilgas_0pt1degree_month_$MM.ncf                  KET        2002-2020/1-12/1/0 RF xyz  kg/m2/s    MEK    26/214/254/1007        1 50
0 EPA16_MOH__npogMEOH            $ROOT/NEI2016/v2021-06/2016fh_16j_np_oilgas_0pt1degree_month_$MM.ncf                  MEOH       2002-2020/1-12/1/0 RF xyz  kg/m2/s    MOH    26/213/254/1007        1 50
0 EPA16_NH3__npogNH3             $ROOT/NEI2016/v2021-06/2016fh_16j_np_oilgas_0pt1degree_month_$MM.ncf                  NH3        2002-2020/1-12/1/0 RF xyz  kg/m2/s    NH3    26/213/253/1007        1 50
0 EPA16_NO__npogNO               $ROOT/NEI2016/v2021-06/2016fh_16j_np_oilgas_0pt1degree_month_$MM.ncf                  NO         2002-2020/1-12/1/0 RF xyz  kg/m2/s    NO     115/25/210/251/1007    1 50
0 EPA16_NO2__npogNO2             $ROOT/NEI2016/v2021-06/2016fh_16j_np_oilgas_0pt1degree_month_$MM.ncf                  NO2        2002-2020/1-12/1/0 RF xyz  kg/m2/s    NO2    25/210/251/1007        1 50
0 EPA16_PRPE__npogOLE            $ROOT/NEI2016/v2021-06/2016fh_16j_np_oilgas_0pt1degree_month_$MM.ncf                  OLE        2002-2020/1-12/1/0 RF xyz  kg/m2/s    PRPE   26/215/254/1007        1 50
0 EPA16_ALK4__npogPAR            $ROOT/NEI2016/v2021-06/2016fh_16j_np_oilgas_0pt1degree_month_$MM.ncf                  PAR        2002-2020/1-12/1/0 RF xyz  kg/m2/s    ALK4   26/212/254/1007        1 50
0 EPA16_BCPI__npogPEC            $ROOT/NEI2016/v2021-06/2016fh_16j_np_oilgas_0pt1degree_month_$MM.ncf                  PEC        2002-2020/1-12/1/0 RF xyz  kg/m2/s    BCPI   26/221/256/1007/70     1 50
0 EPA16_BCPO__npogPEC            $ROOT/NEI2016/v2021-06/2016fh_16j_np_oilgas_0pt1degree_month_$MM.ncf                  PEC        2002-2020/1-12/1/0 RF xyz  kg/m2/s    BCPO   26/221/256/1007/71     1 50
0 EPA16_HNO4__npogPNA            $ROOT/NEI2016/v2021-06/2016fh_16j_np_oilgas_0pt1degree_month_$MM.ncf                  PNA        2002-2020/1-12/1/0 RF xyz  kg/m2/s    HNO4   26/213/251/1007        1 50
0 EPA16_NH4__npogPNH4            $ROOT/NEI2016/v2021-06/2016fh_16j_np_oilgas_0pt1degree_month_$MM.ncf                  PNH4       2002-2020/1-12/1/0 RF xyz  kg/m2/s    NH4    26/218/255/1007        1 50
0 EPA16_NIT__npogPNO3            $ROOT/NEI2016/v2021-06/2016fh_16j_np_oilgas_0pt1degree_month_$MM.ncf                  PNO3       2002-2020/1-12/1/0 RF xyz  kg/m2/s    NIT    26/218/255/1007        1 50
0 EPA16_OCPI__npogPOC            $ROOT/NEI2016/v2021-06/2016fh_16j_np_oilgas_0pt1degree_month_$MM.ncf                  POC        2002-2020/1-12/1/0 RF xyz  kg/m2/s    OCPI   26/222/256/1007/72     1 50
0 EPA16_OCPO__npogPOC            $ROOT/NEI2016/v2021-06/2016fh_16j_np_oilgas_0pt1degree_month_$MM.ncf                  POC        2002-2020/1-12/1/0 RF xyz  kg/m2/s    OCPO   26/222/256/1007/73     1 50
0 EPA16_POG1__npogPOC            -                                                                                     -          -                  -  -    -          POG1   26/222/256/1007/74/76  1 50
0 EPA16_POG2__npogPOC            -                                                                                     -          -                  -  -    -          POG2   26/222/256/1007/74/77  1 50
0 EPA16_C3H8__npogPRPA           $ROOT/NEI2016/v2021-06/2016fh_16j_np_oilgas_0pt1degree_month_$MM.ncf                  PRPA       2002-2020/1-12/1/0 RF xyz  kg/m2/s    C3H8   26/216/254/1007        1 50
0 EPA16_SO4__npogPSO4            $ROOT/NEI2016/v2021-06/2016fh_16j_np_oilgas_0pt1degree_month_$MM.ncf                  PSO4       2002-2020/1-12/1/0 RF xyz  kg/m2/s    SO4    26/219/255/1007        1 50
0 EPA16_SO2__npogSO2             $ROOT/NEI2016/v2021-06/2016fh_16j_np_oilgas_0pt1degree_month_$MM.ncf                  SO2        2002-2020/1-12/1/0 RF xyz  kg/m2/s    SO2    26/218/255/1007        1 50
0 EPA16_pFe__npogpFe             -                                                                                     -          -                  -  -    -          pFe    26/218/255/1007/69     1 50
0 EPA16_SO4__npogSULF            $ROOT/NEI2016/v2021-06/2016fh_16j_np_oilgas_0pt1degree_month_$MM.ncf                  SULF       2002-2020/1-12/1/0 RF xyz  kg/m2/s    SO4    26/219/255/1007        1 50
0 EPA16_TOLU__npogTOL            $ROOT/NEI2016/v2021-06/2016fh_16j_np_oilgas_0pt1degree_month_$MM.ncf                  TOL        2002-2020/1-12/1/0 RF xyz  kg/m2/s    TOLU   26/213/254/1007        1 50
0 EPA16_XYLE__npogXYLMN          $ROOT/NEI2016/v2021-06/2016fh_16j_np_oilgas_0pt1degree_month_$MM.ncf                  XYLMN      2002-2020/1-12/1/0 RF xyz  kg/m2/s    XYLE   26/213/254/1007        1 50
0 EPA16_ACET__onroadACET         $ROOT/NEI2016/v2021-06/2016fh_16j_onroad_0pt1degree_month_$MM.ncf                     ACET       2002-2020/1-12/1/0 RF xyz  kg/m2/s    ACET   26/213/254/1007        1 50
0 EPA16_MACR__onroadACROLEIN     $ROOT/NEI2016/v2021-06/2016fh_16j_onroad_0pt1degree_month_$MM.ncf                     ACROLEIN   2002-2020/1-12/1/0 RF xyz  kg/m2/s    MACR   26/213/254/1007        1 50
0 EPA16_ALD2__onroadALD2         $ROOT/NEI2016/v2021-06/2016fh_16j_onroad_0pt1degree_month_$MM.ncf                     ALD2       2002-2020/1-12/1/0 RF xyz  kg/m2/s    ALD2   26/213/254/1007        1 50
0 EPA16_RCHO__onroadALDX         $ROOT/NEI2016/v2021-06/2016fh_16j_onroad_0pt1degree_month_$MM.ncf                     ALDX       2002-2020/1-12/1/0 RF xyz  kg/m2/s    RCHO   26/213/254/1007        1 50
0 EPA16_BENZ__onroadBENZ         $ROOT/NEI2016/v2021-06/2016fh_16j_onroad_0pt1degree_month_$MM.ncf                     BENZ       2002-2020/1-12/1/0 RF xyz  kg/m2/s    BENZ   26/213/254/1007        1 50
0 EPA16_CO__onroadCO             $ROOT/NEI2016/v2021-06/2016fh_16j_onroad_0pt1degree_month_$MM.ncf                     CO         2002-2020/1-12/1/0 RF xyz  kg/m2/s    CO     26/211/252/1007        1 50
0 EPA16_SOAP__onroadSOAP         -                                                                                     -          -                  -  -    -          SOAP   26/211/252/1007/280    1 50
0 EPA16_C2H4__onroadETH          $ROOT/NEI2016/v2021-06/2016fh_16j_onroad_0pt1degree_month_$MM.ncf                     ETH        2002-2020/1-12/1/0 RF xyz  kg/m2/s    C2H4   26/213/254/1007        1 50
0 EPA16_C2H6__onroadETHA         $ROOT/NEI2016/v2021-06/2016fh_16j_onroad_0pt1degree_month_$MM.ncf                     ETHA       2002-2020/1-12/1/0 RF xyz  kg/m2/s    C2H6   26/217/254/1007        1 50
0 EPA16_EOH__onroadETOH          $ROOT/NEI2016/v2021-06/2016fh_16j_onroad_0pt1degree_month_$MM.ncf                     ETOH       2002-2020/1-12/1/0 RF xyz  kg/m2/s    EOH    26/213/254/1007        1 50
0 EPA16_CH2O__onroadFORM         $ROOT/NEI2016/v2021-06/2016fh_16j_onroad_0pt1degree_month_$MM.ncf                     FORM       2002-2020/1-12/1/0 RF xyz  kg/m2/s    CH2O   26/213/254/1007        1 50
0 EPA16_HNO2__onroadHONO         $ROOT/NEI2016/v2021-06/2016fh_16j_onroad_0pt1degree_month_$MM.ncf                     HONO       2002-2020/1-12/1/0 RF xyz  kg/m2/s    HNO2   25/210/251/1007        1 50
0 EPA16_PRPE__onroadIOLE         $ROOT/NEI2016/v2021-06/2016fh_16j_onroad_0pt1degree_month_$MM.ncf                     IOLE       2002-2020/1-12/1/0 RF xyz  kg/m2/s    PRPE   26/215/254/1007        1 50
0 EPA16_MEK__onroadKET           $ROOT/NEI2016/v2021-06/2016fh_16j_onroad_0pt1degree_month_$MM.ncf                     KET        2002-2020/1-12/1/0 RF xyz  kg/m2/s    MEK    26/214/254/1007        1 50
0 EPA16_MOH__onroadMEOH          $ROOT/NEI2016/v2021-06/2016fh_16j_onroad_0pt1degree_month_$MM.ncf                     MEOH       2002-2020/1-12/1/0 RF xyz  kg/m2/s    MOH    26/213/254/1007        1 50
0 EPA16_NH3__onroadNH3           $ROOT/NEI2016/v2021-06/2016fh_16j_onroad_0pt1degree_month_$MM.ncf                     NH3        2002-2020/1-12/1/0 RF xyz  kg/m2/s    NH3    26/213/253/1007        1 50
0 EPA16_NO__onroadNO             $ROOT/NEI2016/v2021-06/2016fh_16j_onroad_0pt1degree_month_$MM.ncf                     NO         2002-2020/1-12/1/0 RF xyz  kg/m2/s    NO     115/25/210/251/1007    1 50
0 EPA16_NO2__onroadNO2           $ROOT/NEI2016/v2021-06/2016fh_16j_onroad_0pt1degree_month_$MM.ncf                     NO2        2002-2020/1-12/1/0 RF xyz  kg/m2/s    NO2    25/210/251/1007        1 50
0 EPA16_PRPE__onroadOLE          $ROOT/NEI2016/v2021-06/2016fh_16j_onroad_0pt1degree_month_$MM.ncf                     OLE        2002-2020/1-12/1/0 RF xyz  kg/m2/s    PRPE   26/215/254/1007        1 50
0 EPA16_ALK4__onroadPAR          $ROOT/NEI2016/v2021-06/2016fh_16j_onroad_0pt1degree_month_$MM.ncf                     PAR        2002-2020/1-12/1/0 RF xyz  kg/m2/s    ALK4   26/212/254/1007        1 50
0 EPA16_BCPI__onroadPEC          $ROOT/NEI2016/v2021-06/2016fh_16j_onroad_0pt1degree_month_$MM.ncf                     PEC        2002-2020/1-12/1/0 RF xyz  kg/m2/s    BCPI   26/221/256/1007/70     1 50
0 EPA16_BCPO__onroadPEC          $ROOT/NEI2016/v2021-06/2016fh_16j_onroad_0pt1degree_month_$MM.ncf                     PEC        2002-2020/1-12/1/0 RF xyz  kg/m2/s    BCPO   26/221/256/1007/71     1 50
0 EPA16_HNO4__onroadPNA          $ROOT/NEI2016/v2021-06/2016fh_16j_onroad_0pt1degree_month_$MM.ncf                     PNA        2002-2020/1-12/1/0 RF xyz  kg/m2/s    HNO4   26/213/251/1007        1 50
0 EPA16_NH4__onroadPNH4          $ROOT/NEI2016/v2021-06/2016fh_16j_onroad_0pt1degree_month_$MM.ncf                     PNH4       2002-2020/1-12/1/0 RF xyz  kg/m2/s    NH4    26/218/255/1007        1 50
0 EPA16_NIT__onroadPNO3          $ROOT/NEI2016/v2021-06/2016fh_16j_onroad_0pt1degree_month_$MM.ncf                     PNO3       2002-2020/1-12/1/0 RF xyz  kg/m2/s    NIT    26/218/255/1007        1 50
0 EPA16_OCPI__onroadPOC          $ROOT/NEI2016/v2021-06/2016fh_16j_onroad_0pt1degree_month_$MM.ncf                     POC        2002-2020/1-12/1/0 RF xyz  kg/m2/s    OCPI   26/222/256/1007/72     1 50
0 EPA16_OCPO__onroadPOC          $ROOT/NEI2016/v2021-06/2016fh_16j_onroad_0pt1degree_month_$MM.ncf                     POC        2002-2020/1-12/1/0 RF xyz  kg/m2/s    OCPO   26/222/256/1007/73     1 50
0 EPA16_POG1__onroadPOC          -                                                                                     -          -                  -  -    -          POG1   26/222/256/1007/74/76  1 50
0 EPA16_POG2__onroadPOC          -                                                                                     -          -                  -  -    -          POG2   26/222/256/1007/74/77  1 50
0 EPA16_C3H8__onroadPRPA         $ROOT/NEI2016/v2021-06/2016fh_16j_onroad_0pt1degree_month_$MM.ncf                     PRPA       2002-2020/1-12/1/0 RF xyz  kg/m2/s    C3H8   26/216/254/1007        1 50
0 EPA16_SO4__onroadPSO4          $ROOT/NEI2016/v2021-06/2016fh_16j_onroad_0pt1degree_month_$MM.ncf                     PSO4       2002-2020/1-12/1/0 RF xyz  kg/m2/s    SO4    26/219/255/1007        1 50
0 EPA16_SO2__onroadSO2           $ROOT/NEI2016/v2021-06/2016fh_16j_onroad_0pt1degree_month_$MM.ncf                     SO2        2002-2020/1-12/1/0 RF xyz  kg/m2/s    SO2    26/218/255/1007        1 50
0 EPA16_pFe__onroadpFe           -                                                                                     -          -                  -  -    -          pFe    26/218/255/1007/69     1 50
0 EPA16_TOLU__onroadTOL          $ROOT/NEI2016/v2021-06/2016fh_16j_onroad_0pt1degree_month_$MM.ncf                     TOL        2002-2020/1-12/1/0 RF xyz  kg/m2/s    TOLU   26/213/254/1007        1 50
0 EPA16_XYLE__onroadXYLMN        $ROOT/NEI2016/v2021-06/2016fh_16j_onroad_0pt1degree_month_$MM.ncf                     XYLMN      2002-2020/1-12/1/0 RF xyz  kg/m2/s    XYLE   26/213/254/1007        1 50
0 EPA16_ACET__onroad_caACET      $ROOT/NEI2016/v2021-06/2016fh_16j_onroad_ca_adj_0pt1degree_month_$MM.ncf              ACET       2002-2020/1-12/1/0 RF xyz  kg/m2/s    ACET   26/213/254/1007        1 50
0 EPA16_MACR__onroad_caACROLEIN  $ROOT/NEI2016/v2021-06/2016fh_16j_onroad_ca_adj_0pt1degree_month_$MM.ncf              ACROLEIN   2002-2020/1-12/1/0 RF xyz  kg/m2/s    MACR   26/213/254/1007        1 50
0 EPA16_ALD2__onroad_caALD2      $ROOT/NEI2016/v2021-06/2016fh_16j_onroad_ca_adj_0pt1degree_month_$MM.ncf              ALD2       2002-2020/1-12/1/0 RF xyz  kg/m2/s    ALD2   26/213/254/1007        1 50
0 EPA16_RCHO__onroad_caALDX      $ROOT/NEI2016/v2021-06/2016fh_16j_onroad_ca_adj_0pt1degree_month_$MM.ncf              ALDX       2002-2020/1-12/1/0 RF xyz  kg/m2/s    RCHO   26/213/254/1007        1 50
0 EPA16_BENZ__onroad_caBENZ      $ROOT/NEI2016/v2021-06/2016fh_16j_onroad_ca_adj_0pt1degree_month_$MM.ncf              BENZ       2002-2020/1-12/1/0 RF xyz  kg/m2/s    BENZ   26/213/254/1007        1 50
0 EPA16_CO__onroad_caCO          $ROOT/NEI2016/v2021-06/2016fh_16j_onroad_ca_adj_0pt1degree_month_$MM.ncf              CO         2002-2020/1-12/1/0 RF xyz  kg/m2/s    CO     26/211/252/1007        1 50
0 EPA16_SOAP_onroad__caSOAP      -                                                                                     -          -                  -  -    -          SOAP   26/211/252/1007/280    1 50
0 EPA16_C2H4__onroad_caETH       $ROOT/NEI2016/v2021-06/2016fh_16j_onroad_ca_adj_0pt1degree_month_$MM.ncf              ETH        2002-2020/1-12/1/0 RF xyz  kg/m2/s    C2H4   26/213/254/1007        1 50
0 EPA16_C2H6__onroad_caETHA      $ROOT/NEI2016/v2021-06/2016fh_16j_onroad_ca_adj_0pt1degree_month_$MM.ncf              ETHA       2002-2020/1-12/1/0 RF xyz  kg/m2/s    C2H6   26/217/254/1007        1 50
0 EPA16_EOH__onroad_caETOH       $ROOT/NEI2016/v2021-06/2016fh_16j_onroad_ca_adj_0pt1degree_month_$MM.ncf              ETOH       2002-2020/1-12/1/0 RF xyz  kg/m2/s    EOH    26/213/254/1007        1 50
0 EPA16_CH2O__onroad_caFORM      $ROOT/NEI2016/v2021-06/2016fh_16j_onroad_ca_adj_0pt1degree_month_$MM.ncf              FORM       2002-2020/1-12/1/0 RF xyz  kg/m2/s    CH2O   26/213/254/1007        1 50
0 EPA16_HNO2__onroad_caHONO      $ROOT/NEI2016/v2021-06/2016fh_16j_onroad_ca_adj_0pt1degree_month_$MM.ncf              HONO       2002-2020/1-12/1/0 RF xyz  kg/m2/s    HNO2   25/210/251/1007        1 50
0 EPA16_PRPE__onroad_caIOLE      $ROOT/NEI2016/v2021-06/2016fh_16j_onroad_ca_adj_0pt1degree_month_$MM.ncf              IOLE       2002-2020/1-12/1/0 RF xyz  kg/m2/s    PRPE   26/215/254/1007        1 50
0 EPA16_MEK__onroad_caKET        $ROOT/NEI2016/v2021-06/2016fh_16j_onroad_ca_adj_0pt1degree_month_$MM.ncf              KET        2002-2020/1-12/1/0 RF xyz  kg/m2/s    MEK    26/214/254/1007        1 50
0 EPA16_MOH__onroad_caMEOH       $ROOT/NEI2016/v2021-06/2016fh_16j_onroad_ca_adj_0pt1degree_month_$MM.ncf              MEOH       2002-2020/1-12/1/0 RF xyz  kg/m2/s    MOH    26/213/254/1007        1 50
0 EPA16_NH3__onroad_caNH3        $ROOT/NEI2016/v2021-06/2016fh_16j_onroad_ca_adj_0pt1degree_month_$MM.ncf              NH3        2002-2020/1-12/1/0 RF xyz  kg/m2/s    NH3    26/213/253/1007        1 50
0 EPA16_NO__onroad_caNO          $ROOT/NEI2016/v2021-06/2016fh_16j_onroad_ca_adj_0pt1degree_month_$MM.ncf              NO         2002-2020/1-12/1/0 RF xyz  kg/m2/s    NO     115/25/210/251/1007    1 50
0 EPA16_NO2__onroad_caNO2        $ROOT/NEI2016/v2021-06/2016fh_16j_onroad_ca_adj_0pt1degree_month_$MM.ncf              NO2        2002-2020/1-12/1/0 RF xyz  kg/m2/s    NO2    25/210/251/1007        1 50
0 EPA16_PRPE__onroad_caOLE       $ROOT/NEI2016/v2021-06/2016fh_16j_onroad_ca_adj_0pt1degree_month_$MM.ncf              OLE        2002-2020/1-12/1/0 RF xyz  kg/m2/s    PRPE   26/215/254/1007        1 50
0 EPA16_ALK4__onroad_caPAR       $ROOT/NEI2016/v2021-06/2016fh_16j_onroad_ca_adj_0pt1degree_month_$MM.ncf              PAR        2002-2020/1-12/1/0 RF xyz  kg/m2/s    ALK4   26/212/254/1007        1 50
0 EPA16_BCPI__onroad_caPEC       $ROOT/NEI2016/v2021-06/2016fh_16j_onroad_ca_adj_0pt1degree_month_$MM.ncf              PEC        2002-2020/1-12/1/0 RF xyz  kg/m2/s    BCPI   26/221/256/1007/70     1 50
0 EPA16_BCPO__onroad_caPEC       $ROOT/NEI2016/v2021-06/2016fh_16j_onroad_ca_adj_0pt1degree_month_$MM.ncf              PEC        2002-2020/1-12/1/0 RF xyz  kg/m2/s    BCPO   26/221/256/1007/71     1 50
0 EPA16_HNO4__onroad_caPNA       $ROOT/NEI2016/v2021-06/2016fh_16j_onroad_ca_adj_0pt1degree_month_$MM.ncf              PNA        2002-2020/1-12/1/0 RF xyz  kg/m2/s    HNO4   26/213/251/1007        1 50
0 EPA16_NH4__onroad_caPNH4       $ROOT/NEI2016/v2021-06/2016fh_16j_onroad_ca_adj_0pt1degree_month_$MM.ncf              PNH4       2002-2020/1-12/1/0 RF xyz  kg/m2/s    NH4    26/218/255/1007        1 50
0 EPA16_NIT__onroad_caPNO3       $ROOT/NEI2016/v2021-06/2016fh_16j_onroad_ca_adj_0pt1degree_month_$MM.ncf              PNO3       2002-2020/1-12/1/0 RF xyz  kg/m2/s    NIT    26/218/255/1007        1 50
0 EPA16_OCPI__onroad_caPOC       $ROOT/NEI2016/v2021-06/2016fh_16j_onroad_ca_adj_0pt1degree_month_$MM.ncf              POC        2002-2020/1-12/1/0 RF xyz  kg/m2/s    OCPI   26/222/256/1007/72     1 50
0 EPA16_OCPO__onroad_caPOC       $ROOT/NEI2016/v2021-06/2016fh_16j_onroad_ca_adj_0pt1degree_month_$MM.ncf              POC        2002-2020/1-12/1/0 RF xyz  kg/m2/s    OCPO   26/222/256/1007/73     1 50
0 EPA16_POG1__onroad_caPOC       -                                                                                     -          -                  -  -    -          POG1   26/222/256/1007/74/76  1 50
0 EPA16_POG2__onroad_caPOC       -                                                                                     -          -                  -  -    -          POG2   26/222/256/1007/74/77  1 50
0 EPA16_C3H8__onroad_caPRPA      $ROOT/NEI2016/v2021-06/2016fh_16j_onroad_ca_adj_0pt1degree_month_$MM.ncf              PRPA       2002-2020/1-12/1/0 RF xyz  kg/m2/s    C3H8   26/216/254/1007        1 50
0 EPA16_SO4__onroad_caPSO4       $ROOT/NEI2016/v2021-06/2016fh_16j_onroad_ca_adj_0pt1degree_month_$MM.ncf              PSO4       2002-2020/1-12/1/0 RF xyz  kg/m2/s    SO4    26/219/255/1007        1 50
0 EPA16_SO2__onroad_caSO2        $ROOT/NEI2016/v2021-06/2016fh_16j_onroad_ca_adj_0pt1degree_month_$MM.ncf              SO2        2002-2020/1-12/1/0 RF xyz  kg/m2/s    SO2    26/218/255/1007        1 50
0 EPA16_pFe__onroad_capFe        -                                                                                     -          -                  -  -    -          pFe    26/218/255/1007/69     1 50
0 EPA16_TOLU__onroad_caTOL       $ROOT/NEI2016/v2021-06/2016fh_16j_onroad_ca_adj_0pt1degree_month_$MM.ncf              TOL        2002-2020/1-12/1/0 RF xyz  kg/m2/s    TOLU   26/213/254/1007        1 50
0 EPA16_XYLE__onroad_caXYLMN     $ROOT/NEI2016/v2021-06/2016fh_16j_onroad_ca_adj_0pt1degree_month_$MM.ncf              XYLMN      2002-2020/1-12/1/0 RF xyz  kg/m2/s    XYLE   26/213/254/1007        1 50
0 EPA16_ACET__railACET           $ROOT/NEI2016/v2021-06/2016fh_16j_rail_0pt1degree_month_$MM.ncf                       ACET       2002-2020/1-12/1/0 RF xyz  kg/m2/s    ACET   26/213/254/1007        1 50
0 EPA16_MACR__railACROLEIN       $ROOT/NEI2016/v2021-06/2016fh_16j_rail_0pt1degree_month_$MM.ncf                       ACROLEIN   2002-2020/1-12/1/0 RF xyz  kg/m2/s    MACR   26/213/254/1007        1 50
0 EPA16_ALD2__railALD2           $ROOT/NEI2016/v2021-06/2016fh_16j_rail_0pt1degree_month_$MM.ncf                       ALD2       2002-2020/1-12/1/0 RF xyz  kg/m2/s    ALD2   26/213/254/1007        1 50
0 EPA16_RCHO__railALDX           $ROOT/NEI2016/v2021-06/2016fh_16j_rail_0pt1degree_month_$MM.ncf                       ALDX       2002-2020/1-12/1/0 RF xyz  kg/m2/s    RCHO   26/213/254/1007        1 50
0 EPA16_BENZ__railBENZ           $ROOT/NEI2016/v2021-06/2016fh_16j_rail_0pt1degree_month_$MM.ncf                       BENZ       2002-2020/1-12/1/0 RF xyz  kg/m2/s    BENZ   26/213/254/1007        1 50
0 EPA16_CO__railCO               $ROOT/NEI2016/v2021-06/2016fh_16j_rail_0pt1degree_month_$MM.ncf                       CO         2002-2020/1-12/1/0 RF xyz  kg/m2/s    CO     26/211/252/1007        1 50
0 EPA16_SOAP__railSOAP           -                                                                                     -          -                  -  -    -          SOAP   26/211/252/1007/280    1 50
0 EPA16_C2H4__railETH            $ROOT/NEI2016/v2021-06/2016fh_16j_rail_0pt1degree_month_$MM.ncf                       ETH        2002-2020/1-12/1/0 RF xyz  kg/m2/s    C2H4   26/213/254/1007        1 50
0 EPA16_C2H6__railETHA           $ROOT/NEI2016/v2021-06/2016fh_16j_rail_0pt1degree_month_$MM.ncf                       ETHA       2002-2020/1-12/1/0 RF xyz  kg/m2/s    C2H6   26/217/254/1007        1 50
0 EPA16_EOH__railETOH            $ROOT/NEI2016/v2021-06/2016fh_16j_rail_0pt1degree_month_$MM.ncf                       ETOH       2002-2020/1-12/1/0 RF xyz  kg/m2/s    EOH    26/213/254/1007        1 50
0 EPA16_CH2O__railFORM           $ROOT/NEI2016/v2021-06/2016fh_16j_rail_0pt1degree_month_$MM.ncf                       FORM       2002-2020/1-12/1/0 RF xyz  kg/m2/s    CH2O   26/213/254/1007        1 50
0 EPA16_HNO2__railHONO           $ROOT/NEI2016/v2021-06/2016fh_16j_rail_0pt1degree_month_$MM.ncf                       HONO       2002-2020/1-12/1/0 RF xyz  kg/m2/s    HNO2   25/210/251/1007        1 50
0 EPA16_PRPE__railIOLE           $ROOT/NEI2016/v2021-06/2016fh_16j_rail_0pt1degree_month_$MM.ncf                       IOLE       2002-2020/1-12/1/0 RF xyz  kg/m2/s    PRPE   26/215/254/1007        1 50
0 EPA16_MEK__railKET             $ROOT/NEI2016/v2021-06/2016fh_16j_rail_0pt1degree_month_$MM.ncf                       KET        2002-2020/1-12/1/0 RF xyz  kg/m2/s    MEK    26/214/254/1007        1 50
0 EPA16_MOH__railMEOH            $ROOT/NEI2016/v2021-06/2016fh_16j_rail_0pt1degree_month_$MM.ncf                       MEOH       2002-2020/1-12/1/0 RF xyz  kg/m2/s    MOH    26/213/254/1007        1 50
0 EPA16_NH3__railNH3             $ROOT/NEI2016/v2021-06/2016fh_16j_rail_0pt1degree_month_$MM.ncf                       NH3        2002-2020/1-12/1/0 RF xyz  kg/m2/s    NH3    26/213/253/1007        1 50
0 EPA16_NO__railNO               $ROOT/NEI2016/v2021-06/2016fh_16j_rail_0pt1degree_month_$MM.ncf                       NO         2002-2020/1-12/1/0 RF xyz  kg/m2/s    NO     115/25/210/251/1007    1 50
0 EPA16_NO2__railNO2             $ROOT/NEI2016/v2021-06/2016fh_16j_rail_0pt1degree_month_$MM.ncf                       NO2        2002-2020/1-12/1/0 RF xyz  kg/m2/s    NO2    25/210/251/1007        1 50
0 EPA16_PRPE__railOLE            $ROOT/NEI2016/v2021-06/2016fh_16j_rail_0pt1degree_month_$MM.ncf                       OLE        2002-2020/1-12/1/0 RF xyz  kg/m2/s    PRPE   26/215/254/1007        1 50
0 EPA16_ALK4__railPAR            $ROOT/NEI2016/v2021-06/2016fh_16j_rail_0pt1degree_month_$MM.ncf                       PAR        2002-2020/1-12/1/0 RF xyz  kg/m2/s    ALK4   26/212/254/1007        1 50
0 EPA16_BCPI__railPEC            $ROOT/NEI2016/v2021-06/2016fh_16j_rail_0pt1degree_month_$MM.ncf                       PEC        2002-2020/1-12/1/0 RF xyz  kg/m2/s    BCPI   26/221/256/1007/70     1 50
0 EPA16_BCPO__railPEC            $ROOT/NEI2016/v2021-06/2016fh_16j_rail_0pt1degree_month_$MM.ncf                       PEC        2002-2020/1-12/1/0 RF xyz  kg/m2/s    BCPO   26/221/256/1007/71     1 50
0 EPA16_HNO4__railPNA            $ROOT/NEI2016/v2021-06/2016fh_16j_rail_0pt1degree_month_$MM.ncf                       PNA        2002-2020/1-12/1/0 RF xyz  kg/m2/s    HNO4   26/213/251/1007        1 50
0 EPA16_NH4__railPNH4            $ROOT/NEI2016/v2021-06/2016fh_16j_rail_0pt1degree_month_$MM.ncf                       PNH4       2002-2020/1-12/1/0 RF xyz  kg/m2/s    NH4    26/218/255/1007        1 50
0 EPA16_NIT__railPNO3            $ROOT/NEI2016/v2021-06/2016fh_16j_rail_0pt1degree_month_$MM.ncf                       PNO3       2002-2020/1-12/1/0 RF xyz  kg/m2/s    NIT    26/218/255/1007        1 50
0 EPA16_OCPI__railPOC            $ROOT/NEI2016/v2021-06/2016fh_16j_rail_0pt1degree_month_$MM.ncf                       POC        2002-2020/1-12/1/0 RF xyz  kg/m2/s    OCPI   26/222/256/1007/72     1 50
0 EPA16_OCPO__railPOC            $ROOT/NEI2016/v2021-06/2016fh_16j_rail_0pt1degree_month_$MM.ncf                       POC        2002-2020/1-12/1/0 RF xyz  kg/m2/s    OCPO   26/222/256/1007/73     1 50
0 EPA16_POG1__railPOC            -                                                                                     -          -                  -  -    -          POG1   26/222/256/1007/74/76  1 50
0 EPA16_POG2__railPOC            -                                                                                     -          -                  -  -    -          POG2   26/222/256/1007/74/77  1 50
0 EPA16_C3H8__railPRPA           $ROOT/NEI2016/v2021-06/2016fh_16j_rail_0pt1degree_month_$MM.ncf                       PRPA       2002-2020/1-12/1/0 RF xyz  kg/m2/s    C3H8   26/216/254/1007        1 50
0 EPA16_SO4__railPSO4            $ROOT/NEI2016/v2021-06/2016fh_16j_rail_0pt1degree_month_$MM.ncf                       PSO4       2002-2020/1-12/1/0 RF xyz  kg/m2/s    SO4    26/219/255/1007        1 50
0 EPA16_SO2__railSO2             $ROOT/NEI2016/v2021-06/2016fh_16j_rail_0pt1degree_month_$MM.ncf                       SO2        2002-2020/1-12/1/0 RF xyz  kg/m2/s    SO2    26/218/255/1007        1 50
0 EPA16_pFe__railpFe             -                                                                                     -          -                  -  -    -          pFe    26/218/255/1007/69     1 50
0 EPA16_SO4__railSULF            $ROOT/NEI2016/v2021-06/2016fh_16j_rail_0pt1degree_month_$MM.ncf                       SULF       2002-2020/1-12/1/0 RF xyz  kg/m2/s    SO4    26/219/255/1007        1 50
0 EPA16_TOLU__railTOL            $ROOT/NEI2016/v2021-06/2016fh_16j_rail_0pt1degree_month_$MM.ncf                       TOL        2002-2020/1-12/1/0 RF xyz  kg/m2/s    TOLU   26/213/254/1007        1 50
0 EPA16_XYLE__railXYLMN          $ROOT/NEI2016/v2021-06/2016fh_16j_rail_0pt1degree_month_$MM.ncf                       XYLMN      2002-2020/1-12/1/0 RF xyz  kg/m2/s    XYLE   26/213/254/1007        1 50
0 EPA16_ACET__rwcACET            $ROOT/NEI2016/v2021-06/2016fh_16j_rwc_0pt1degree_month_$MM.ncf                        ACET       2002-2020/1-12/1/0 RF xyz  kg/m2/s    ACET   26/213/254/1007        1 50
0 EPA16_MACR__rwcACROLEIN        $ROOT/NEI2016/v2021-06/2016fh_16j_rwc_0pt1degree_month_$MM.ncf                        ACROLEIN   2002-2020/1-12/1/0 RF xyz  kg/m2/s    MACR   26/213/254/1007        1 50
0 EPA16_ALD2__rwcALD2            $ROOT/NEI2016/v2021-06/2016fh_16j_rwc_0pt1degree_month_$MM.ncf                        ALD2       2002-2020/1-12/1/0 RF xyz  kg/m2/s    ALD2   26/213/254/1007        1 50
0 EPA16_RCHO__rwcALDX            $ROOT/NEI2016/v2021-06/2016fh_16j_rwc_0pt1degree_month_$MM.ncf                        ALDX       2002-2020/1-12/1/0 RF xyz  kg/m2/s    RCHO   26/213/254/1007        1 50
0 EPA16_BENZ__rwcBENZ            $ROOT/NEI2016/v2021-06/2016fh_16j_rwc_0pt1degree_month_$MM.ncf                        BENZ       2002-2020/1-12/1/0 RF xyz  kg/m2/s    BENZ   26/213/254/1007        1 50
0 EPA16_Cl2__rwcCL2              $ROOT/NEI2016/v2021-06/2016fh_16j_rwc_0pt1degree_month_$MM.ncf                        CL2        2016/1-12/1/0      R  xyz  kg/m2/s    Cl2    1007                   1 50
0 EPA16_CO__rwcCO                $ROOT/NEI2016/v2021-06/2016fh_16j_rwc_0pt1degree_month_$MM.ncf                        CO         2002-2020/1-12/1/0 RF xyz  kg/m2/s    CO     26/211/252/1007        1 50
0 EPA16_SOAP__rwcSOAP            -                                                                                     -          -                  -  -    -          SOAP   26/211/252/1007/280    1 50
0 EPA16_C2H4__rwcETH             $ROOT/NEI2016/v2021-06/2016fh_16j_rwc_0pt1degree_month_$MM.ncf                        ETH        2002-2020/1-12/1/0 RF xyz  kg/m2/s    C2H4   26/213/254/1007        1 50
0 EPA16_C2H6__rwcETHA            $ROOT/NEI2016/v2021-06/2016fh_16j_rwc_0pt1degree_month_$MM.ncf                        ETHA       2002-2020/1-12/1/0 RF xyz  kg/m2/s    C2H6   26/217/254/1007        1 50
0 EPA16_EOH__rwcETOH             $ROOT/NEI2016/v2021-06/2016fh_16j_rwc_0pt1degree_month_$MM.ncf                        ETOH       2002-2020/1-12/1/0 RF xyz  kg/m2/s    EOH    26/213/254/1007        1 50
0 EPA16_CH2O__rwcFORM            $ROOT/NEI2016/v2021-06/2016fh_16j_rwc_0pt1degree_month_$MM.ncf                        FORM       2002-2020/1-12/1/0 RF xyz  kg/m2/s    CH2O   26/213/254/1007        1 50
0 EPA16_HNO2__rwcHONO            $ROOT/NEI2016/v2021-06/2016fh_16j_rwc_0pt1degree_month_$MM.ncf                        HONO       2002-2020/1-12/1/0 RF xyz  kg/m2/s    HNO2   25/210/251/1007        1 50
0 EPA16_PRPE__rwcIOLE            $ROOT/NEI2016/v2021-06/2016fh_16j_rwc_0pt1degree_month_$MM.ncf                        IOLE       2002-2020/1-12/1/0 RF xyz  kg/m2/s    PRPE   26/215/254/1007        1 50
0 EPA16_MEK__rwcKET              $ROOT/NEI2016/v2021-06/2016fh_16j_rwc_0pt1degree_month_$MM.ncf                        KET        2002-2020/1-12/1/0 RF xyz  kg/m2/s    MEK    26/214/254/1007        1 50
0 EPA16_MOH__rwcMEOH             $ROOT/NEI2016/v2021-06/2016fh_16j_rwc_0pt1degree_month_$MM.ncf                        MEOH       2002-2020/1-12/1/0 RF xyz  kg/m2/s    MOH    26/213/254/1007        1 50
0 EPA16_NH3__rwcNH3              $ROOT/NEI2016/v2021-06/2016fh_16j_rwc_0pt1degree_month_$MM.ncf                        NH3        2002-2020/1-12/1/0 RF xyz  kg/m2/s    NH3    26/213/253/1007        1 50
0 EPA16_NO__rwcNO                $ROOT/NEI2016/v2021-06/2016fh_16j_rwc_0pt1degree_month_$MM.ncf                        NO         2002-2020/1-12/1/0 RF xyz  kg/m2/s    NO     115/25/210/251/1007    1 50
0 EPA16_NO2__rwcNO2              $ROOT/NEI2016/v2021-06/2016fh_16j_rwc_0pt1degree_month_$MM.ncf                        NO2        2002-2020/1-12/1/0 RF xyz  kg/m2/s    NO2    25/210/251/1007        1 50
0 EPA16_PRPE__rwcOLE             $ROOT/NEI2016/v2021-06/2016fh_16j_rwc_0pt1degree_month_$MM.ncf                        OLE        2002-2020/1-12/1/0 RF xyz  kg/m2/s    PRPE   26/215/254/1007        1 50
0 EPA16_ALK4__rwcPAR             $ROOT/NEI2016/v2021-06/2016fh_16j_rwc_0pt1degree_month_$MM.ncf                        PAR        2002-2020/1-12/1/0 RF xyz  kg/m2/s    ALK4   26/212/254/1007        1 50
0 EPA16_BCPI__rwcPEC             $ROOT/NEI2016/v2021-06/2016fh_16j_rwc_0pt1degree_month_$MM.ncf                        PEC        2002-2020/1-12/1/0 RF xyz  kg/m2/s    BCPI   26/221/256/1007/70     1 50
0 EPA16_BCPO__rwcPEC             $ROOT/NEI2016/v2021-06/2016fh_16j_rwc_0pt1degree_month_$MM.ncf                        PEC        2002-2020/1-12/1/0 RF xyz  kg/m2/s    BCPO   26/221/256/1007/71     1 50
0 EPA16_HNO4__rwcPNA             $ROOT/NEI2016/v2021-06/2016fh_16j_rwc_0pt1degree_month_$MM.ncf                        PNA        2002-2020/1-12/1/0 RF xyz  kg/m2/s    HNO4   26/213/251/1007        1 50
0 EPA16_NH4__rwcPNH4             $ROOT/NEI2016/v2021-06/2016fh_16j_rwc_0pt1degree_month_$MM.ncf                        PNH4       2002-2020/1-12/1/0 RF xyz  kg/m2/s    NH4    26/218/255/1007        1 50
0 EPA16_NIT__rwcPNO3             $ROOT/NEI2016/v2021-06/2016fh_16j_rwc_0pt1degree_month_$MM.ncf                        PNO3       2002-2020/1-12/1/0 RF xyz  kg/m2/s    NIT    26/218/255/1007        1 50
0 EPA16_OCPI__rwcPOC             $ROOT/NEI2016/v2021-06/2016fh_16j_rwc_0pt1degree_month_$MM.ncf                        POC        2002-2020/1-12/1/0 RF xyz  kg/m2/s    OCPI   26/222/256/1007/72     1 50
0 EPA16_OCPO__rwcPOC             $ROOT/NEI2016/v2021-06/2016fh_16j_rwc_0pt1degree_month_$MM.ncf                        POC        2002-2020/1-12/1/0 RF xyz  kg/m2/s    OCPO   26/222/256/1007/73     1 50
0 EPA16_POG1__rwcPOC             -                                                                                     -          -                  -  -    -          POG1   26/222/256/1007/74/76  1 50
0 EPA16_POG2__rwcPOC             -                                                                                     -          -                  -  -    -          POG2   26/222/256/1007/74/77  1 50
0 EPA16_C3H8__rwcPRPA            $ROOT/NEI2016/v2021-06/2016fh_16j_rwc_0pt1degree_month_$MM.ncf                        PRPA       2002-2020/1-12/1/0 RF xyz  kg/m2/s    C3H8   26/216/254/1007        1 50
0 EPA16_SO4__rwcPSO4             $ROOT/NEI2016/v2021-06/2016fh_16j_rwc_0pt1degree_month_$MM.ncf                        PSO4       2002-2020/1-12/1/0 RF xyz  kg/m2/s    SO4    26/219/255/1007        1 50
0 EPA16_SO2__rwcSO2              $ROOT/NEI2016/v2021-06/2016fh_16j_rwc_0pt1degree_month_$MM.ncf                        SO2        2002-2020/1-12/1/0 RF xyz  kg/m2/s    SO2    26/218/255/1007        1 50
0 EPA16_pFe__rwcpFe              -                                                                                     -          -                  -  -    -          pFe    26/218/255/1007/69     1 50
0 EPA16_SO4__rwcSULF             $ROOT/NEI2016/v2021-06/2016fh_16j_rwc_0pt1degree_month_$MM.ncf                        SULF       2002-2020/1-12/1/0 RF xyz  kg/m2/s    SO4    26/219/255/1007        1 50
0 EPA16_TOLU__rwcTOL             $ROOT/NEI2016/v2021-06/2016fh_16j_rwc_0pt1degree_month_$MM.ncf                        TOL        2002-2020/1-12/1/0 RF xyz  kg/m2/s    TOLU   26/213/254/1007        1 50
[...]
(((LIANG_BROMOCARB
39 BROMOCARB_SEASON $ROOT/BROMINE/v2015-02/BromoCarb_Season.nc CHXBRY_scale 2000/1-12/1/0 C xy unitless 1
)))LIANG_BROMOCARB

#==============================================================================
# --- Scale factors used for species conversions ---
#==============================================================================

# Units carbon to species conversions
# Factor = # carbon atoms * MW carbon) / MW species
40 CtoACET MATH:58.09/(3.0*12.0)   - - - xy unitless 1
41 CtoALD2 MATH:44.06/(2.0*12.0)   - - - xy unitless 1
42 CtoALK4 MATH:58.12/(4.3*12.0)   - - - xy unitless 1
43 CtoBENZ MATH:78.12/(6.0*12.0)   - - - xy unitless 1
44 CtoC2H4 MATH:28.05/(2.0*12.0)   - - - xy unitless 1
45 CtoC2H6 MATH:30.08/(2.0*12.0)   - - - xy unitless 1
46 CtoC3H8 MATH:44.11/(3.0*12.0)   - - - xy unitless 1
47 CtoEOH  MATH:46.07/(2.0*12.0)   - - - xy unitless 1
48 CtoMEK  MATH:72.11/(4.0*12.0)   - - - xy unitless 1
49 CtoPRPE MATH:42.09/(3.0*12.0)   - - - xy unitless 1
55 CtoTOLU MATH:92.15/(7.0*12.0)   - - - xy unitless 1
56 CtoXYLE MATH:106.18/(8.0*12.0)  - - - xy unitless 1
59 CtoC2H2 MATH:26.04/(2.0*12.0)   - - - xy unitless 1
61 CtoISOP MATH:68.13/(5.0*12.0)   - - - xy unitless 1
62 CtoMTPA MATH:136.26/(10.0*12.0) - - - xy unitless 1
64 CtoMBOX MATH:86.13/(5.0*12.0)   - - - xy unitless 1
67 CtoSESQ MATH:204.4/(15.0*12.0)  - - - xy unitless 1
83 CtoMACR MATH:70.10/(4.0*12.0)   - - - xy unitless 1
84 CtoRCHO MATH:58.09/(3.0*12.0)   - - - xy unitless 1

# VOC speciations
(((RCP_3PD.or.RCP_45.or.RCP_60.or.RCP_85
50 KET2MEK    0.25  - - - xy unitless 1
51 KET2ACET   0.75  - - - xy unitless 1
)))RCP_3PD.or.RCP_45.or.RCP_60.or.RCP_85

(((APEI.or.EDGARv43.or.DICE_Africa.or.QFED2
52 COPROD_FOSSIL    1.02  - - - xy unitless 1
54 COPROD_BIOMASS   1.05  - - - xy unitless 1
)))APEI.or.EDGARv43.or.DICE_Africa.or.QFED2

# RCP acids to HCOOH conversion
(((RCP_3PD.or.RCP_45.or.RCP_60.or.RCP_85
57 RCP_HCOOHfraction 0.25     - - - xy unitless 1
58 RCP_ACIDStoHCOOH  0.779661 - - - xy unitless 1
)))RCP_3PD.or.RCP_45.or.RCP_60.or.RCP_85

# SOx to SO2 conversion (Chin et al., 2000)
60 SOX2SO2_GLOBAL 0.986  - - - xy unitless 1
63 SO2toSO4       0.031  - - - xy unitless 1
65 SO2toSO4_APEI  0.014  - - - xy unitless 1
66 SO2toPFe       1.0e-3 - - - xy unitless 1
68 SO2toPFe_APEI  4.7e-4 - - - xy unitless 1
69 SO2toPFe_NEI   1.0e-3 - - - xy unitless 1
78 SO2FRAC        0.969  - - - xy unitless 1

# Carbon aerosols: speciation of hydrophilic and hydrophobic fractions
# (Fractions applied to the biomass burning extensions (GFED or FINN) are
#  specified separately in the extensions section.)
70 BC2BCPI  0.2  - - - xy unitless 1
71 BC2BCPO  0.8  - - - xy unitless 1
72 OC2OCPI  0.5  - - - xy unitless 1
73 OC2OCPO  0.5  - - - xy unitless 1
74 POGSCAL  1.27 - - - xy unitless 1
76 SV2POG1  0.49 - - - xy unitless 1
77 SV2POG2  0.51 - - - xy unitless 1

(((BB4MIPS
# Convert MOH to ACET emissions for CMIP6 Scenarios
79 MOH2ACET 0.2094649 - - - xy unitless 1
)))BB4MIPS

# Convert CEDS total alchohols to methanol, ethanol, and other alcohols following Chen et al. (2019, ACP)
90 VOC1toMOH 0.5   - - - xy 1 1
91 VOC1toEOH 0.375 - - - xy 1 1
92 VOC1toROH 0.125 - - - xy 1 1

# NOx/NO2 to NO conversion
115 NO2toNO  6.521739e-1 - -  - xy unitless 1

# SOA-Precursor scale factors
#
# From Kim, P.S., et. al. 2015 "Sources, seasonality, and trends
# of southeast US aerosol: ..."
#   AVOCs and BBVOCs are emitted in proportion to CO, with an emission ratio of
#     0.069 g AVOC (g CO)1 (Hayes et al., 2015) and
#     0.013 g BBVOC (g CO)1 (Cubison et al., 2011).
#   They are both oxidized by OH in the model ... to generate SOA.
280 COtoSOAP_anth 0.069 - - - xy 1 1
281 COtoSOAP_burn 0.013 - - - xy 1 1

#==============================================================================
# --- QFED2 diurnal scale factors ---
#
# Fire diurnal scaling factors (% per hour) from WRAP Report to Project
# No. 178-6, July 2005
#==============================================================================
(((QFED2.or.GFAS.or.BB4MIPS
75 QFED2_TOD 0.1392/0.1392/0.1368/0.1368/0.1368/0.1368/0.1368/0.1368/0.1368/0.48/0.96/1.68/2.4/3.12/3.84/4.08/2.88/1.68/0.96/0.1368/0.1368/0.1368/0.1368/0.1368 - - - xy unitless 1
)))QFED2.or.GFAS.or.BB4MIPS

#==============================================================================
# --- NAP scale factors ---
#
# Get anthropogenic (FF) NAP emissions by scaling BENZ emissions with the
# following factor. Factor is ratio of TgC NAP to TgC BENZ emissions
# or equivalently, molec C NAP to molec C BENZ. Scaling should produce
# about 0.09 TgC NAP/year, consistent with non-BB,BF emissions predicted
# by Zhang and Tao 2009 Atm Env
# Based on year 2000 1x1 inv  (hotp 11/14/09)
#REAL*8, PARAMETER    :: NAPTOBENZSCALE = 0.06861d0

# NAPTOTSCAL: factor to scale total NAP emissions to POA (hotp 7/24/09)
#REAL*8, PARAMETER    :: NAPTOTALSCALE = 66.09027d0

# = CO emissions * emissions ratio of mol NAP / mol CO
# * kg C / mol NAP * mol CO / kg CO
# mmol NAP / mol CO = 0.025 g NAP/ kg DM /
#              ( 78 g CO/ kg DM ) * 28 g CO / mol CO
#            / ( 128 g NAP / mol NAP ) *1000 mmol/mol
# scale emissions down if appropriate to remove the
# effect of VOC ox on CO emission
# EF for NAP from Andreae and Merlet 2001 Glob Biog Cyc
# EF for CO  from Andreae and Merlet 2001 Glob Biog Cyc
#BIOFUEL_KG(N,:,:) = BIOFUEL_KG(IDBFCO,:,:) * 0.0701d-3
#                  * 120d0 / 28d0 * COSCALEDOWN
#==============================================================================
(((EDGARv43
80 NAPEMISS   1.0     - - - xy unitless 1
81 NAPTOTSCAL 66.09   - - - xy unitless 1
82 BENZTONAP  6.86e-2 - - - xy unitless 1
)))EDGARv43

#==============================================================================
# --- BIOGENIC EMISSIONS FROM DRY LEAF MATTER ---
#
# Use yield of 40ug/dDW.
# Assume organic matter has molecular formula CH2O (MW 30.03), which
#  means 0.4 gC / g plant
# ALD2 MW = 44.05 g/mole ==> 0.55 gC/g ALD2
#  Therefore 40ug (ALD2) / g (plant) ==> 55 ug C in ALD2 / gC plant
# EOH MW = 46 g/mole ==> 0.52 gC/g EOH
#  Therefore 40ug (EOH)  / g (plant) ==> 52 ug C in EOH  / gC plant
#==============================================================================
(((DECAYING_PLANTS
85 YIELD_RESP_ALD2 55.0e-6 - - - xy unitless 1
86 YIELD_RESP_EOH  52.0e-6 - - - xy unitless 1
)))DECAYING_PLANTS

#==============================================================================
# --- AEIC2019 aircraft emissions scale factors ---
#
# See http://geoschemdata.wustl.edu/ExtData/HEMCO/AEIC2019/v2022-03/AEIC_2019_technical_note.pdf
#==============================================================================
(((AEIC2019_DAILY.or.AEIC2019_MONMEAN
# Conversions from AEIC2019 inventory quantities to individual species
101 AEICACET 3.693477e-3 - - - xy unitless 1
102 AEICALD2 4.271822e-2 - - - xy unitless 1
103 AEICALK4 2.137911e-1 - - - xy unitless 1
104 AEICC2H6 5.214505e-3 - - - xy unitless 1
105 AEICC3H8 7.808710e-4 - - - xy unitless 1
106 AEICCH2O 1.230811e-1 - - - xy unitless 1
107 AEICPRPE 1.780418e-1 - - - xy unitless 1
108 AEICMACR 5.362609e-2 - - - xy unitless 1
109 AEICRCHO 3.676944e-2 - - - xy unitless 1
111 AEICSO2  1.176000e-3 - - - xy unitless 1
112 AEICSO4  3.600000e-5 - - - xy unitless 1
113 AEICBC   3.000000e-5 - - - xy unitless 1
114 AEICHC   1.160000e+0 - - - xy unitless 1
120 FB2H2O   1.231000e+0 - - - xy unitless 1

#------------------------------------------------------------------------------
# Scaling factors for 1990-2019 derived from Lee et al. (2021).  Increase
# from 2018 to 2019 is estimated based on the growth from 2017 to 2018.
# Lee et al. (2021) only covers 1990 to 2018, so to get to 2019 it is
# assumed that the growth from 2017 to 2018 is the same as that from 2018
# to 2019. So the formula is something like:
#
# Emissions of CO  in 2009 = AEIC 2019 emissions of CO
#                          * (Lee 2017 CO        / Lee 2018 fuel burn)
#                          * (Lee 2009 fuel burn / Lee 2018 fuel burn)
#
# So in this case, we use the Lee 2017/Lee 2018 value to scale AEICs
# emissions to the 2018 values, and then scale directly using the Lee et al
# fuel burn. This ensures that, when running with year 2019, you get an
# unadjusted version of the AEIC2019 inventory, and all previous years are
# scaled down. For NOx, the same procedure is applied but with an additional
# factor to account for changes in NOx EI:
#
# Emissions of NOx in 2009 = [ AEIC 2019 emissions of NOx
#                          *   (Lee 2017 CO        / Lee 2018 fuel burn)
#                          *   (Lee 2009 fuel burn / Lee 2018 fuel burn) ]
#                          * [ (Lee 2017 NOx EI    / Lee 2018 NOx EI)
#                          *   (Lee 2009 NOx EI    / Lee 2018 NOx EI)    ]
#
# In this case though the Lee et al 2018 and 2017 NOx EIs are identical.
# All scaling factors are included in here in HEMCO_Config.rc.
#------------------------------------------------------------------------------
(((AEIC_SCALE_1990_2019
240 AC_EINOX   0.852/0.852/0.852/0.859/0.866/0.873/0.881/0.888/0.896/0.903/0.911/0.916/0.922/0.927/0.932/0.937/0.950/0.962/0.974/0.987/1.000/1.000/1.000/1.000/1.000/1.000/1.000/1.000/1.000/1.000 - 1990-2019/1/1/0 C xy 1 1
241 AC_FBMULT  0.506/0.489/0.490/0.493/0.517/0.529/0.553/0.570/0.581/0.600/0.631/0.607/0.608/0.608/0.646/0.678/0.686/0.706/0.703/0.666/0.700/0.721/0.728/0.749/0.773/0.815/0.854/0.905/0.952/1.000 - 1990-2019/1/1/0 C xy 1 1
)))AEIC_SCALE_1990_2019

# If not applying 1990-2019 scale factors, use 1.0
(((.not.AEIC_SCALE_1990_2019
240 AC_EINOX  1.000000e+0 - -  - xy 1 1
241 AC_FBMULT 1.000000e+0 - -  - xy 1 1
))).not.AEIC_SCALE_1990_2019
)))AEIC2019_DAILY.or.AEIC2019_MONMEAN

(((CMIP6_AIRCRAFT
# Conversions for SO2 to HCs taken from AEIC
601 CMIP6_SO2_TO_ACET 3.140712 - -  - xy unitless 1
602 CMIP6_SO2_TO_ALD2 36.32502 - -  - xy unitless 1
603 CMIP6_SO2_TO_ALK4 181.7952 - -  - xy unitless 1
604 CMIP6_SO2_TO_C2H6 4.434103 - -  - xy unitless 1
605 CMIP6_SO2_TO_C3H8 0.664006 - -  - xy unitless 1
606 CMIP6_SO2_TO_CH2O 104.6608 - -  - xy unitless 1
607 CMIP6_SO2_TO_PRPE 151.3961 - -  - xy unitless 1
608 CMIP6_SO2_TO_MACR 45.60042 - -  - xy unitless 1
609 CMIP6_SO2_TO_RCHO 31.26653 - -  - xy unitless 1
)))CMIP6_AIRCRAFT

#==============================================================================
# --- EPA NEI day-of-week scale factors ---
#==============================================================================
(((NEI2016_MONMEAN
210 NEI99_DOW_NOX   $ROOT/NEI2005/v2023-02/NEI99.dow.geos.1x1.corrected.012023.nc NOX  1999/1-12/WD/0 C xy 1 1
211 NEI99_DOW_CO    $ROOT/NEI2005/v2023-02/NEI99.dow.geos.1x1.corrected.012023.nc CO   1999/1-12/WD/0 C xy 1 1
212 NEI99_DOW_ALK4  $ROOT/NEI2005/v2023-02/NEI99.dow.geos.1x1.corrected.012023.nc ALK4 1999/1-12/WD/0 C xy 1 1
213 NEI99_DOW_ACET  $ROOT/NEI2005/v2023-02/NEI99.dow.geos.1x1.corrected.012023.nc ACET 1999/1-12/WD/0 C xy 1 1
214 NEI99_DOW_MEK   $ROOT/NEI2005/v2023-02/NEI99.dow.geos.1x1.corrected.012023.nc MEK  1999/1-12/WD/0 C xy 1 1
215 NEI99_DOW_PRPE  $ROOT/NEI2005/v2023-02/NEI99.dow.geos.1x1.corrected.012023.nc PRPE 1999/1-12/WD/0 C xy 1 1
216 NEI99_DOW_C3H8  $ROOT/NEI2005/v2023-02/NEI99.dow.geos.1x1.corrected.012023.nc C3H8 1999/1-12/WD/0 C xy 1 1
217 NEI99_DOW_C2H6  $ROOT/NEI2005/v2023-02/NEI99.dow.geos.1x1.corrected.012023.nc C2H6 1999/1-12/WD/0 C xy 1 1
218 NEI99_DOW_SO2   $ROOT/NEI2005/v2023-02/NEI99.dow.geos.1x1.corrected.012023.nc SO2  1999/1-12/WD/0 C xy 1 1
219 NEI99_DOW_SO4   $ROOT/NEI2005/v2023-02/NEI99.dow.geos.1x1.corrected.012023.nc SO4  1999/1-12/WD/0 C xy 1 1
220 NEI99_DOW_MSA   $ROOT/NEI2005/v2023-02/NEI99.dow.geos.1x1.corrected.012023.nc MSA  1999/1-12/WD/0 C xy 1 1
221 NEI99_DOW_BCPI  $ROOT/NEI2005/v2023-02/NEI99.dow.geos.1x1.corrected.012023.nc BCPI 1999/1-12/WD/0 C xy 1 1
222 NEI99_DOW_OCPI  $ROOT/NEI2005/v2023-02/NEI99.dow.geos.1x1.corrected.012023.nc OCPI 1999/1-12/WD/0 C xy 1 1
)))NEI2016_MONMEAN

#==============================================================================
# --- EPA NEI2016 annual scale factors ---
#
# Annual scale factors were computed from the EPA Trends Report for Tier 1 CAPS
# (obtained 21 Sep 2021) using the "Total without wildfires" field. NH3 and
# PM2.5 only had values for 2002-2020, while the remaining species had yearly
# values for 1990-2020 (we include only 2002-2020 here).
#
# See NEI2016/v2021-06/national_tier1_caps+HEMCOscaling.xlsx for details.
#==============================================================================
(((NEI2016_MONMEAN
251 NEI2016_NOx_YRSCALE  2.341/2.213/2.083/1.989/1.879/1.768/1.651/1.539/1.448/1.407/1.345/1.282/1.224/1.135/1.000/0.943/0.895/0.840/0.785 - 2002-2020/1/1/0 C xy 1 1
252 NEI2016_CO_YRSCALE   1.817/1.767/1.716/1.666/1.610/1.554/1.393/1.251/1.272/1.261/1.220/1.178/1.137/1.095/1.000/0.973/0.950/0.927/0.904 - 2002-2020/1/1/0 C xy 1 1
253 NEI2016_NH3_YRSCALE  0.996/0.999/1.002/1.005/1.043/1.082/1.100/1.088/1.077/1.012/0.957/0.954/0.899/0.950/1.000/1.052/1.051/1.050/1.049 - 2002-2020/1/1/0 C xy 1 1
254 NEI2016_VOC_YRSCALE  1.314/1.285/1.255/1.223/1.234/1.246/1.148/1.135/1.154/1.175/1.153/1.131/1.110/1.067/1.000/0.970/0.956/0.941/0.926 - 2002-2020/1/1/0 C xy 1 1
255 NEI2016_SO2_YRSCALE  4.773/4.701/4.626/4.625/4.171/3.717/3.273/2.879/2.446/2.038/1.591/1.525/1.469/1.237/1.000/0.767/0.735/0.641/0.583 - 2002-2020/1/1/0 C xy 1 1
256 NEI2016_PM25_YRSCALE 1.120/1.140/1.159/1.178/1.213/1.248/1.202/1.195/1.190/1.192/1.153/1.115/1.077/1.040/1.000/0.964/0.961/0.958/0.955 - 2002-2020/1/1/0 C xy 1 1
)))NEI2016_MONMEAN

#==============================================================================
# --- GFAS scale factors ---
#==============================================================================
(((GFAS
300 GFAS_EMITL $ROOT/GFAS/v2018-09/$YYYY/GFAS_$YYYY$MM.nc mami 2003-2021/1-12/1-31/0 C xy m 1
)))GFAS

#==============================================================================
# --- QFED vertical partitioning ---
# Following Fischer et al. (2014) and Travis et al. (2016), emit 35% of QFED
# emissions above the PBL.
#==============================================================================
(((QFED2
311 QFED_PBL_FRAC 0.65 - - - xy 1 1
312 QFED_FT_FRAC  0.35 - - - xy 1 1
)))QFED2

#==============================================================================
# --- CEDS vertical partitioning ---
#==============================================================================
(((CEDSv2.or.CEDS_GBDMAPS
315 ENERGY_LEVS   $ROOT/VerticalScaleFactors/v2021-05/gc_layers.nc g_energy   2017/1/1/0 C xyz 1 1
316 INDUSTRY_LEVS $ROOT/VerticalScaleFactors/v2021-05/gc_layers.nc g_industry 2017/1/1/0 C xyz 1 1
317 SHIP_LEVS     $ROOT/VerticalScaleFactors/v2021-05/gc_layers.nc cmv_c3     2017/1/1/0 C xyz 1 1
)))CEDSv2.or.CEDS_GBDMAPS

#==============================================================================
# --- DICE-Africa ---
#==============================================================================
(((DICE_Africa
# Charcoal production scale factor to reduce charcoal production
# by a factor of 5 after finding error in implementation of emission factors.
320 DICE_CP_SF    0.20 - - - xy 1 1

# Car emissions of OCPI and OCPO scale factor to address a factor of 7 overestimate
# in car OC emissions that results from incorrect emission factors used in the original inventory
330 DICE_CAR_OC_SF    0.14 - - - xy 1 1
)))DICE_Africa

#==============================================================================
# --- Offline biogenic VOC scale factors ---
#
# Isoprene      : 1.5% mass yield SOAP, 1.5% mass yield SOAS
# Monoterpenes  : 5.0% mass yield SOAP, 5.0% mass yield SOAS
# Other terpenes: 5.0% mass yield SOAP, 5.0% mass yield SOAS
#  --> Need to multiply by 1.133 to convert from carbon basis to mass basis
#==============================================================================
(((OFFLINE_BIOGENICVOC
610 ISOPtoSOA 0.0170 - - - xy 1 1
611 MONOtoSOA 0.0567 - - - xy 1 1
612 OTHRtoSOA 0.0567 - - - xy 1 1
)))OFFLINE_BIOGENICVOC

#==============================================================================
# --- Offline sea salt scale factors ---
#
# NOTES:
# - Sea salt alkalinity and chloride values obtained from hcox_seasalt_mod.F90
# - BrContent obtained from '--> Br- mass ratio' in SeaSalt extension above
#==============================================================================
(((OFFLINE_SEASALT
615 SSAlkalinity 1.0     - - - xy 1 1
616 SSChloride   0.5504  - - - xy 1 1
617 BrContent    2.11e-3 - - - xy 1 1
)))OFFLINE_SEASALT

)))EMISSIONS

#==============================================================================
# Scale the CMIP6 values in pptv to ppbv
#==============================================================================
801 pptv2ppbv  0.001      - - - xy 1 1
802 vv2ppbv    1000000000 - - - xy 1 1

#==============================================================================
# --- EDGAR 4.3.1 ---
# Using data of 2010, the calculated seasonal ratio for different species in the
# same sector are nearly identical, possibly due to consistent activity data used.
# Therefore we use the seasonal scale factors of CO in 2010 for most sectors,
# except for AGR, AWB and SOL.
# For AGR, the NH3 AGR seasonal scale factors are used.
# For AWB, the CO AGR seasonal scale factors are used.
# For SOL, the NOx AGR seasonal scale factors are used.
#==============================================================================
(((EDGARv43.or.DICE_Africa
1201 POW $ROOT/EDGARv43/v2016-11/EDGAR_v43.Seasonal.1x1.nc POW 2010/1-12/1/0 C xy unitless 1
1202 ENG $ROOT/EDGARv43/v2016-11/EDGAR_v43.Seasonal.1x1.nc ENG 2010/1-12/1/0 C xy unitless 1
1203 IND $ROOT/EDGARv43/v2016-11/EDGAR_v43.Seasonal.1x1.nc IND 2010/1-12/1/0 C xy unitless 1
1204 TRO $ROOT/EDGARv43/v2016-11/EDGAR_v43.Seasonal.1x1.nc TRO 2010/1-12/1/0 C xy unitless 1
1205 TNG $ROOT/EDGARv43/v2016-11/EDGAR_v43.Seasonal.1x1.nc TNG 2010/1-12/1/0 C xy unitless 1
1206 RCO $ROOT/EDGARv43/v2016-11/EDGAR_v43.Seasonal.1x1.nc RCO 2010/1-12/1/0 C xy unitless 1
1207 PPA $ROOT/EDGARv43/v2016-11/EDGAR_v43.Seasonal.1x1.nc PPA 2010/1-12/1/0 C xy unitless 1
1208 AGR $ROOT/EDGARv43/v2016-11/EDGAR_v43.Seasonal.1x1.nc AGR 2010/1-12/1/0 C xy unitless 1
1209 AWB $ROOT/EDGARv43/v2016-11/EDGAR_v43.Seasonal.1x1.nc AWB 2010/1-12/1/0 C xy unitless 1
1210 SOL $ROOT/EDGARv43/v2016-11/EDGAR_v43.Seasonal.1x1.nc SOL 2010/1-12/1/0 C xy unitless 1
1211 SWD $ROOT/EDGARv43/v2016-11/EDGAR_v43.Seasonal.1x1.nc SWD 2010/1-12/1/0 C xy unitless 1
1212 FFF $ROOT/EDGARv43/v2016-11/EDGAR_v43.Seasonal.1x1.nc FFF 2010/1-12/1/0 C xy unitless 1
)))EDGARv43.or.DICE_Africa

### END SECTION SCALE FACTORS ###

###############################################################################
### BEGIN SECTION MASKS
###############################################################################

# ScalID Name sourceFile sourceVar sourceTime C/R/E SrcDim SrcUnit Oper Lon1/Lat1/Lon2/Lat2

(((EMISSIONS

#==============================================================================
# Country/region masks
#==============================================================================
(((APEI
1002 CANADA_MASK $ROOT/MASKS/v2018-09/Canada_mask.geos.1x1.nc                  MASK     2000/1/1/0 C xy 1 1 -141/40/-52/85
)))APEI

(((NEI2016_MONMEAN
1007 CONUS_MASK  $ROOT/MASKS/v2018-09/CONUS_Mask.01x01.nc                      MASK     2000/1/1/0 C xy 1 1 -140/20/-50/60
)))NEI2016_MONMEAN

(((DICE_Africa
1008 AFRICA_MASK $ROOT/MASKS/v2018-09/AF_LANDMASK.geos.05x0666.global.nc       LANDMASK 1985/1/1/0 C xy 1 1 -20/-37/54/40
)))DICE_Africa

1009 CHINA_MASK  $ROOT/MASKS/v2018-09/China_mask.generic.1x1.nc                MASK     2000/1/1/0 C xy 1 1  70/10/150/60

(((AFCID
1010 INDIA_MASK  $ROOT/MASKS/v2019-05/India_mask.generic.1x1.nc                MASK     2000/1/1/0 C xy 1 1  67/7/99/39
)))AFCID

)))EMISSIONS

### END SECTION MASKS ###

### END OF HEMCO INPUT FILE ###
#EOC
