###############################################################################
###  HISTORY.rc file for GEOS-Chem full chemistry simulations               ###
###  Contact: GEOS-Chem Support Team (geos-chem-support@g.harvard.edu)      ###
###############################################################################

#============================================================================
# This HISTORY.rc file is specific for running GEOS-Chem within the
# Community Earth System Model (CESM)
#
# There are two steps to configure GEOS-Chem "History" diagnostics in CESM:
#
# 1) Uncomment the names of the diagnostics you wish to output in this file.
#    Make sure the collections they are included in are also uncommented in the
#    COLLECTIONS list at the top of the file.
#
# 2) Write the names of the diagnostics you wish to output into the 'finclX'
#    namelist variable in CESM case file 'user_nl_cam'. Use that file instead
#    of this one to configure averaging/instantaneous, frequency, duration,
#    and other collection features in the same way as other CESM outputs.
#
# Important notes:
#
# 1) Collection name, frequency, duration, and mode in this file are ignored.
#    CESM diagnostic collections and their attributes must be specified in
#    file 'user_nl_cam' within the CESM case directory.
#
# 2) Mixing ratio diagnostics are always available without using this file.
#    For example, you may output ozone mixing ratio by specifying
#    'O3' in CESM file 'user_nl_cam' rather than 'SpeciesConcVV_O3'.
#    The SpeciesConc collection is therefore excluded. Note that the CESM
#    mixing ratio diagnostics are computed from State_Chm%Species(N)%Conc
#    rather than State_Diag%SpeciesConc.
#
# 3) Diagnostic name wildcards (e.g. ?ADV?) are NOT available for use in CESM.
#    All diagnostic tags, such as 'O2' in 'JVAL_O2', must be written out
#    explicitly.
#
# 4) Many physical/chemical processes in CESM are handled outside of GEOS-Chem,
#    such as wet deposition and advection. GEOS-Chem diagnostics computed in
#    those components are therefore not available and are excluded in this file.
#
#============================================================================

#============================================================================
# EXPID allows you to specify the beginning of the file path corresponding
# to each diagnostic collection.  For example:
#
#   EXPID: ./GEOSChem
#      Will create netCDF files whose names begin "GEOSChem",
#      in this run directory.
#
#   EXPID: ./OutputDir/GEOSChem
#      Will create netCDF files whose names begin with "GEOSChem"
#      in the OutputDir sub-folder of this run directory.
#
#============================================================================
EXPID:  ./IGNORED_USE_user_nl_cam

#==============================================================================
# %%%%% COLLECTION NAME DECLARATIONS %%%%%
#
# To enable a collection, remove the "#" character in front of its name. The
# Restart collection should always be turned on.
#
# NOTE: These are the "default" collections for GEOS-Chem, but you can create
# your own customized diagnostic collections as well.
#==============================================================================
COLLECTIONS: 'Metrics',
             #'AerosolMass',
             #'Aerosols',
             #'Budget',
             ##'ConcAboveSfc',
             #'ConcAfterChem',
             #'DryDep',
             'JValues',
             #'KppDiags',
             #'LevelEdgeDiags',
             'ProdLoss',
             'StateChm',
             #'StateMet',
             #'StratBM',
::
###############################################################################
### The rest of this file consists of collection definitions.               ###
### Above collections whose declarations are commented out will be ignored. ###
### Make sure that each collection definition, as well as the list of       ###
### collections above, ends with a double-colon ("::").                     ###
###############################################################################

#==============================================================================
# %%%%% THE Metrics COLLECTION %%%%%
#
# Diagnostics for chemistry metrics such as global mean OH concentration,
# MCF lifetime, and CH4 lifetime.
#
# This diagnostic collection should always be left on.
# Use the run-directory script ./metrics_fullchem.py to print results.
#
# Available for full-chemistry and CH4 simulations only.
#==============================================================================
  Metrics.template:           '%y4%m2%d2_%h2%n2z.nc4',
  Metrics.frequency:          'End',
  Metrics.duration:           'End',
  Metrics.mode:               'time-averaged'
  Metrics.fields:             'AirMassColumnFull             ',
                              'LossOHbyCH4columnTrop         ',
                              'LossOHbyMCFcolumnTrop         ',
                              'OHwgtByAirMassColumnFull      ',
::
#==============================================================================
# %%%%% THE AerosolMass COLLECTION %%%%%
#
# Aerosol and PM2.5 mass
#
# Available for full-chemistry and aerosol-only simulations
#==============================================================================
  AerosolMass.template:       '%y4%m2%d2_%h2%n2z.nc4',
  AerosolMass.frequency:      {FREQUENCY}
  AerosolMass.duration:       {DURATION}
  AerosolMass.mode:           'time-averaged'
  AerosolMass.fields:         'AerMassASOA          ',
                              'AerMassBC            ',
                              'AerMassINDIOL        ',
                              'AerMassLVOCOA        ',
                              'AerMassNH4           ',
                              'AerMassNIT           ',
                              'AerMassOPOA          ',
                              'AerMassPOA           ',
                              'AerMassSAL           ',
                              'AerMassSO4           ',
                              'AerMassSOAGX         ',
                              'AerMassSOAIE         ',
                              'AerMassTSOA          ',
                              'BetaNO               ',
                              #'PM25                ', # duplicate name in CESM
                              'TotalBiogenicOA      ',
                              'TotalOA              ',
                              'TotalOC              ',
::
#==============================================================================
# %%%%% The Aerosols COLLECTION %%%%%
#
# Aerosol optical depth, surface area, number density, and hygroscopic growth
#
# Available for full-chemistry or aerosol-only simulations
#==============================================================================
  Aerosols.template:          '%y4%m2%d2_%h2%n2z.nc4',
  Aerosols.frequency:         {FREQUENCY}
  Aerosols.duration:          {DURATION}
  Aerosols.mode:              'time-averaged'
  Aerosols.fields:            'AODHygWL1_SO4                 ',
                              'AODHygWL1_BCPI                ',
                              'AODHygWL1_OCPI                ',
                              'AODHygWL1_SALA                ',
                              'AODHygWL1_SALC                ',
                              'AODDust                       ',
                              'AODDustWL1_bin1               ',
                              'AODDustWL1_bin2               ',
                              'AODDustWL1_bin3               ',
                              'AODDustWL1_bin4               ',
                              'AODDustWL1_bin5               ',
                              'AODDustWL1_bin6               ',
                              'AODDustWL1_bin7               ',
                              'AODSOAfromAqIsopreneWL1       ',
                              'AODStratLiquidAerWL1          ',
                              'AODPolarStratCloudWL1         ',
                              'AerHygroscopicGrowth_SO4      ',
                              'AerHygroscopicGrowth_BCPI     ',
                              'AerHygroscopicGrowth_OCPI     ',
                              'AerHygroscopicGrowth_SALA     ',
                              'AerHygroscopicGrowth_SALC     ',
                              'AerNumDensityStratLiquid      ',
                              'AerNumDensityStratParticulate ',
                              'AerAqueousVolume              ',
                              'AerSurfAreaDust               ',
                              'AerSurfAreaHyg_SO4            ',
                              'AerSurfAreaHyg_BCPI           ',
                              'AerSurfAreaHyg_OCPI           ',
                              'AerSurfAreaHyg_SALA           ',
                              'AerSurfAreaHyg_SALC           ',
                              'AerSurfAreaStratLiquid        ',
                              'AerSurfAreaPolarStratCloud    ',
                              'Chem_AeroAreaMDUST1           ',
                              'Chem_AeroAreaMDUST2           ',
                              'Chem_AeroAreaMDUST3           ',
                              'Chem_AeroAreaMDUST4           ',
                              'Chem_AeroAreaMDUST5           ',
                              'Chem_AeroAreaMDUST6           ',
                              'Chem_AeroAreaMDUST7           ',
                              'Chem_AeroAreaSULF             ',
                              'Chem_AeroAreaBC               ',
                              'Chem_AeroAreaOC               ',
                              'Chem_AeroAreaSSA              ',
                              'Chem_AeroAreaSSC              ',
                              'Chem_AeroAreaBGSULF           ',
                              'Chem_AeroAreaICEI             ',
                              'Chem_AeroRadiMDUST1           ',
                              'Chem_AeroRadiMDUST2           ',
                              'Chem_AeroRadiMDUST3           ',
                              'Chem_AeroRadiMDUST4           ',
                              'Chem_AeroRadiMDUST5           ',
                              'Chem_AeroRadiMDUST6           ',
                              'Chem_AeroRadiMDUST7           ',
                              'Chem_AeroRadiSULF             ',
                              'Chem_AeroRadiBC               ',
                              'Chem_AeroRadiOC               ',
                              'Chem_AeroRadiSSA              ',
                              'Chem_AeroRadiSSC              ',
                              'Chem_AeroRadiBGSULF           ',
                              'Chem_AeroRadiICEI             ',
                              'Chem_WetAeroAreaMDUST1        ',
                              'Chem_WetAeroAreaMDUST2        ',
                              'Chem_WetAeroAreaMDUST3        ',
                              'Chem_WetAeroAreaMDUST4        ',
                              'Chem_WetAeroAreaMDUST5        ',
                              'Chem_WetAeroAreaMDUST6        ',
                              'Chem_WetAeroAreaMDUST7        ',
                              'Chem_WetAeroAreaSULF          ',
                              'Chem_WetAeroAreaBC            ',
                              'Chem_WetAeroAreaOC            ',
                              'Chem_WetAeroAreaSSA           ',
                              'Chem_WetAeroAreaSSC           ',
                              'Chem_WetAeroAreaBGSULF        ',
                              'Chem_WetAeroAreaICEI          ',
                              'Chem_WetAeroRadiMDUST1        ',
                              'Chem_WetAeroRadiMDUST2        ',
                              'Chem_WetAeroRadiMDUST3        ',
                              'Chem_WetAeroRadiMDUST4        ',
                              'Chem_WetAeroRadiMDUST5        ',
                              'Chem_WetAeroRadiMDUST6        ',
                              'Chem_WetAeroRadiMDUST7        ',
                              'Chem_WetAeroRadiSULF          ',
                              'Chem_WetAeroRadiBC            ',
                              'Chem_WetAeroRadiOC            ',
                              'Chem_WetAeroRadiSSA           ',
                              'Chem_WetAeroRadiSSC           ',
                              'Chem_WetAeroRadiBGSULF        ',
                              'Chem_WetAeroRadiICEI          ',
                              'Chem_StatePSC                 ',
                              'Chem_KhetiSLAN2O5H2O          ',
                              'Chem_KhetiSLAN2O5HCl          ',
                              'Chem_KhetiSLAClNO3H2O         ',
                              'Chem_KhetiSLAClNO3HCl         ',
                              'Chem_KhetiSLAClNO3HBr         ',
                              'Chem_KhetiSLABrNO3H2O         ',
                              'Chem_KhetiSLABrNO3HCl         ',
                              'Chem_KhetiSLAHOClHCl          ',
                              'Chem_KhetiSLAHOClHBr          ',
                              'Chem_KhetiSLAHOBrHCl          ',
                              'Chem_KhetiSLAHOBrHBr          ',
::
#==============================================================================
# %%%%% THE Budget COLLECTION %%%%%
#
# GEOS-Chem budget diagnostics defined as species kg/s in the column
# (full, troposphere, or PBL) due to a single component (e.g. chemistry)
# This diagnostic is avaiable for all advected species.
#
# Available for all simulations
#==============================================================================
  Budget.template:     '%y4%m2%d2_%h2%n2z.nc4',
  Budget.frequency:    {FREQUENCY}
  Budget.duration:     {DURATION}
  Budget.mode:         'time-averaged'
  Budget.fields:       'BudgetChemistryFull_O3            ',
                       'BudgetChemistryTrop_O3            ',
                       'BudgetChemistryPBL_O3             ',
::
#==============================================================================
# %%%%% THE ConcAboveSfc COLLECTION %%%%%
#
# Concentrations of O3 and HNO3 at a user-specified altitude above
# the surface, such as 10m.  Set the desired output altitude in meters
# in the deposition settings in geoschem_config.yml.
#
# NOTES:
# (1) This collection requires dry deposition to be turned on.
# (2) All of the fields in the collection must be turned on.
# (3) This collection is best used with mode "instantaneous".
#==============================================================================
  ConcAboveSfc.template:      '%y4%m2%d2_%h2%n2z.nc4',
  ConcAboveSfc.frequency:     {FREQUENCY}
  ConcAboveSfc.duration:      {DURATION}
  ConcAboveSfc.mode:          'instantaneous'
  ConcAboveSfc.fields:        'DryDepRaALT1               ',
                              'DryDepVelForALT1_O3        ',
                              'DryDepVelForALT1_HNO3      ',
                              'SpeciesConcALT1_O3         ',
                              'SpeciesConcALT1_HNO3       ',
::
#==============================================================================
# %%%%% THE ConcAfterChem COLLECTION %%%%%
#
# Concentrations of OH, HO2, O1D, O3P immediately after exiting the KPP solver
# or OH after the CH4 specialty-simulation chemistry routine.
#
# OH:       Available for all full-chemistry simulations and CH4 specialty sim
# HO2:      Available for all full-chemistry simulations
# O1D, O3P: Availalbe for full-chemistry simulations using UCX mechanism
#==============================================================================
  ConcAfterChem.template:     '%y4%m2%d2_%h2%n2z.nc4',
  ConcAfterChem.frequency:    {FREQUENCY}
  ConcAfterChem.duration:     {DURATION}
  ConcAfterChem.mode:         'time-averaged'
  ConcAfterChem.fields:       'OHconcAfterChem               ',
                              'HO2concAfterChem              ',
                              'O1DconcAfterChem              ',
                              'O3PconcAfterChem              ',
::
#==============================================================================
# %%%%% THE JValues COLLECTION %%%%%
#
# Photolysis rates and UV fluxes (from the FAST-JX photolysis module)
#
# Available for all full-chemistry simulations
#==============================================================================
  JValues.template:           '%y4%m2%d2_%h2%n2z.nc4',
  JValues.frequency:          {FREQUENCY}
  JValues.duration:           {DURATION}
  JValues.mode:               'time-averaged'
  JValues.fields:             'JvalO3O3P              ',
                              'JvalO3O1D              ',
                              'Jval_O2                ',
                              'Jval_SO4               ',
                              'Jval_RP                ',
                              'Jval_RIPD              ',
                              'Jval_RIPC              ',
                              'Jval_RIPB              ',
                              'Jval_RIPA              ',
                              'Jval_RCHO              ',
                              'Jval_RB3P              ',
                              'Jval_RA3P              ',
                              'Jval_R4P               ',
                              'Jval_R4N2              ',
                              'Jval_PYAC              ',
                              'Jval_PRPN              ',
                              'Jval_PROPNN            ',
                              'Jval_PP                ',
                              'Jval_PIP               ',
                              'Jval_PAN               ',
                              'Jval_OIO               ',
                              'Jval_OCS               ',
                              'Jval_OClO              ',
                              'Jval_O3                ',
                              'Jval_NPRNO3            ',
                              'Jval_NO3               ',
                              'Jval_NO2               ',
                              'Jval_NO                ',
                              'Jval_NITs              ',
                              'Jval_NIT               ',
                              'Jval_N2O5              ',
                              'Jval_N2O               ',
                              'Jval_MVKPC             ',
                              'Jval_MVKN              ',
                              'Jval_MVKHP             ',
                              'Jval_MVKHCB            ',
                              'Jval_MVKHC             ',
                              'Jval_MVK               ',
                              'Jval_MPN               ',
                              'Jval_MPAN              ',
                              'Jval_MP                ',
                              'Jval_MONITU            ',
                              'Jval_MONITS            ',
                              'Jval_MGLY              ',
                              'Jval_MENO3             ',
                              'Jval_MEK               ',
                              'Jval_MCRHP             ',
                              'Jval_MCRHNB            ',
                              'Jval_MCRHN             ',
                              'Jval_MCRENOL           ',
                              'Jval_MAP               ',
                              'Jval_MACR1OOH          ',
                              'Jval_MACR              ',
                              'Jval_ITHN              ',
                              'Jval_ITCN              ',
                              'Jval_IPRNO3            ',
                              'Jval_IONO2             ',
                              'Jval_IONO              ',
                              'Jval_IO                ',
                              'Jval_INPD              ',
                              'Jval_INPB              ',
                              'Jval_INO               ',
                              'Jval_IHN4              ',
                              'Jval_IHN3              ',
                              'Jval_IHN2              ',
                              'Jval_IHN1              ',
                              'Jval_IDN               ',
                              'Jval_IDHPE             ',
                              'Jval_IDHDP             ',
                              'Jval_IDCHP             ',
                              'Jval_ICPDH             ',
                              'Jval_ICN               ',
                              'Jval_ICl               ',
                              'Jval_IBr               ',
                              'Jval_I2O4              ',
                              'Jval_I2O3              ',
                              'Jval_I2O2              ',
                              'Jval_I2                ',
                              'Jval_HPETHNL           ',
                              'Jval_HPALD4            ',
                              'Jval_HPALD3            ',
                              'Jval_HPALD2            ',
                              'Jval_HPALD1            ',
                              'Jval_HONIT             ',
                              'Jval_HOI               ',
                              'Jval_HOCl              ',
                              'Jval_HOBr              ',
                              'Jval_HNO4              ',
                              'Jval_HNO3              ',
                              'Jval_HNO2              ',
                              'Jval_HMHP              ',
                              'Jval_HCFC22            ',
                              'Jval_HCFC142b          ',
                              'Jval_HCFC141b          ',
                              'Jval_HCFC123           ',
                              'Jval_HC5A              ',
                              'Jval_HAC               ',
                              'Jval_H2O2              ',
                              'Jval_H2402             ',
                              'Jval_H1301             ',
                              'Jval_H1211             ',
                              'Jval_GLYX              ',
                              'Jval_GLYC              ',
                              'Jval_ETP               ',
                              'Jval_ETNO3             ',
                              'Jval_ETHP              ',
                              'Jval_ETHLN             ',
                              'Jval_ClOO              ',
                              'Jval_ClO               ',
                              'Jval_ClNO3             ',
                              'Jval_ClNO2             ',
                              'Jval_Cl2O2             ',
                              'Jval_Cl2               ',
                              'Jval_CHCl3             ',
                              'Jval_CHBr3             ',
                              'Jval_CH3I              ',
                              'Jval_CH3Cl             ',
                              'Jval_CH3CCl3           ',
                              'Jval_CH3Br             ',
                              'Jval_CH2O              ',
                              'Jval_CH2ICl            ',
                              'Jval_CH2IBr            ',
                              'Jval_CH2I2             ',
                              'Jval_CH2Cl2            ',
                              'Jval_CH2Br2            ',
                              'Jval_CFC12             ',
                              'Jval_CFC115            ',
                              'Jval_CFC114            ',
                              'Jval_CFC113            ',
                              'Jval_CFC11             ',
                              'Jval_CCl4              ',
                              'Jval_BrO               ',
                              'Jval_BrNO3             ',
                              'Jval_BrNO2             ',
                              'Jval_BrCl              ',
                              'Jval_Br2               ',
                              'Jval_ATOOH             ',
                              'Jval_ALD2              ',
                              'Jval_ACET              ',
                              'UVFluxNet_574nm        ',
                              'UVFluxNet_380nm        ',
                              'UVFluxNet_333nm        ',
                              'UVFluxNet_316nm        ',
                              'UVFluxNet_310nm        ',
                              'UVFluxNet_303nm        ',
                              'UVFluxNet_295nm        ',
                              'UVFluxNet_277nm        ',
                              'UVFluxNet_267nm        ',
                              'UVFluxNet_261nm        ',
                              'UVFluxNet_214nm        ',
                              'UVFluxNet_211nm        ',
                              'UVFluxNet_208nm        ',
                              'UVFluxNet_202nm        ',
                              'UVFluxNet_196nm        ',
                              'UVFluxNet_193nm        ',
                              'UVFluxNet_191nm        ',
                              'UVFluxNet_187nm        ',
                              'UVFluxDirect_574nm     ',
                              'UVFluxDirect_380nm     ',
                              'UVFluxDirect_333nm     ',
                              'UVFluxDirect_316nm     ',
                              'UVFluxDirect_310nm     ',
                              'UVFluxDirect_303nm     ',
                              'UVFluxDirect_295nm     ',
                              'UVFluxDirect_277nm     ',
                              'UVFluxDirect_267nm     ',
                              'UVFluxDirect_261nm     ',
                              'UVFluxDirect_214nm     ',
                              'UVFluxDirect_211nm     ',
                              'UVFluxDirect_208nm     ',
                              'UVFluxDirect_202nm     ',
                              'UVFluxDirect_196nm     ',
                              'UVFluxDirect_193nm     ',
                              'UVFluxDirect_191nm     ',
                              'UVFluxDirect_187nm     ',
                              'UVFluxDiffuse_574nm    ',
                              'UVFluxDiffuse_380nm    ',
                              'UVFluxDiffuse_333nm    ',
                              'UVFluxDiffuse_316nm    ',
                              'UVFluxDiffuse_310nm    ',
                              'UVFluxDiffuse_303nm    ',
                              'UVFluxDiffuse_295nm    ',
                              'UVFluxDiffuse_277nm    ',
                              'UVFluxDiffuse_267nm    ',
                              'UVFluxDiffuse_261nm    ',
                              'UVFluxDiffuse_214nm    ',
                              'UVFluxDiffuse_211nm    ',
                              'UVFluxDiffuse_208nm    ',
                              'UVFluxDiffuse_202nm    ',
                              'UVFluxDiffuse_196nm    ',
                              'UVFluxDiffuse_193nm    ',
                              'UVFluxDiffuse_191nm    ',
                              'UVFluxDiffuse_187nm    ',
::
#==============================================================================
# %%%%% THE KppDiags COLLECTION %%%%%
#
# Diagnostics from the KPP solver.
#
# Available for full-chemistry simulations (all variations)
#==============================================================================
  KppDiags.template:          '%y4%m2%d2_%h2%n2z.nc4',
  KppDiags.frequency:         {FREQUENCY}
  KppDiags.duration:          {DURATION}
  KppDiags.mode:              'time-averaged'
  KppDiags.fields:            'KppIntCounts                  ',
                              'KppJacCounts                  ',
                              'KppTotSteps                   ',
                              'KppAccSteps                   ',
                              'KppRejSteps                   ',
                              'KppLuDecomps                  ',
                              'KppSubsts                     ',
                              'KppSmDecomps                  ',
::
#==============================================================================
# %%%%% THE LevelEdgeDiags COLLECTION %%%%%
#
# Diagnostics that are defined on grid box level edges
#
# Available for all simulations
#==============================================================================
  LevelEdgeDiags.template:    '%y4%m2%d2_%h2%n2z.nc4',
  LevelEdgeDiags.frequency:   {FREQUENCY}
  LevelEdgeDiags.duration:    {DURATION}
  LevelEdgeDiags.mode:        'time-averaged'
  LevelEdgeDiags.fields:      'Met_CMFMC                     ',
                              'Met_PEDGE                     ',
                              'Met_PEDGEDRY                  ',
                              'Met_PFICU                     ',
                              'Met_PFILSAN                   ',
                              'Met_PFLCU                     ',
                              'Met_PFLLSAN                   ',
::
#==============================================================================
# %%%%% THE ProdLoss COLLECTION %%%%%
#
# Chemical production and loss rates
#
# Available for full-chemistry, aerosol-only, tagO3, and tagCO simulations
#==============================================================================
  ProdLoss.template:          '%y4%m2%d2_%h2%n2z.nc4',
  ProdLoss.frequency:         {FREQUENCY}
  ProdLoss.duration:          {DURATION}
  ProdLoss.mode:              'time-averaged'
  ProdLoss.fields:            'Prod_Ox                       ',
                              'Prod_SO4                      ',
                              'Prod_CO                       ',
                              'Prod_H2O2                     ',
                              'Loss_CH4                      ',
                              'Loss_CO                       ',
                              'Loss_Ox                       ',
                              'ProdBCPIfromBCPO              ',
                              'ProdOCPIfromOCPO              ',
                              'ProdSO4fromH2O2inCloud        ',
                              'ProdSO4fromO2inCloudMetal     ',
                              'ProdSO4fromO3inCloud          ',
                              'ProdSO4fromO3inSeaSalt        ',
                              'ProdSO4fromHOBrInCloud        ',
                              'ProdSO4fromSRO3               ',
                              'ProdSO4fromSRHObr             ',
                              'ProdSO4fromO3s                ',
                              'LossHNO3onSeaSalt             ',
                              'ProdCOfromCH4                 ',
                              'ProdCOfromNMVOC               ',
::
#==============================================================================
# %%%%% THE StateChm COLLECTION %%%%%
#
# Fields of the State_Chm object (see also Aerosols collection)
#
# Available for full-chemistry and aerosols-only simulations
#==============================================================================
  StateChm.template:          '%y4%m2%d2_%h2%n2z.nc4',
  StateChm.frequency:         {FREQUENCY}
  StateChm.duration:          {DURATION}
  StateChm.mode:              'time-averaged'
  StateChm.fields:            'Chem_IsorropAeropHAccum       ',
                              'Chem_IsorropAeropHCoarse      ',
                              'Chem_IsorropHplusAccum        ',
                              'Chem_IsorropHplusCoarse       ',
                              'Chem_IsorropAeroH2OAccum      ',
                              'Chem_IsorropAeroH2OCoarse     ',
                              'Chem_IsorropSulfate           ',
                              'Chem_IsorropNitrateAccum      ',
                              'Chem_IsorropNitrateCoarse     ',
                              'Chem_IsorropChlorideAccum     ',
                              'Chem_IsorropChlorideCoarse    ',
                              'Chem_IsorropBisulfate         ',
                              'Chem_pHCloud                  ',
                              'Chem_isCloud                  ',
                              'Chem_SSAlkAccumMode           ',
                              'Chem_SSAlkCoarseMode          ',
                              'Chem_HSO3AQ                   ',
                              'Chem_SO3AQ                    ',
                              'Chem_fupdateHOBr              ',
                              'Chem_GammaN2O5overall         ',
                              'Chem_GammaN2O5fine            ',
                              'Chem_YieldClNO2fine           ',
::
#==============================================================================
# %%%%% The StateMet COLLECTION %%%%%
#
# Fields of the State_Met object (also see the LevelEdgeDiags collection)
#
# Available for all simulations
#==============================================================================
  StateMet.template:          '%y4%m2%d2_%h2%n2z.nc4',
  StateMet.frequency:         {FREQUENCY}
  StateMet.duration:          {DURATION}
  StateMet.mode:              'time-averaged'
  StateMet.fields:            'Met_AD                        ',
                              'Met_AIRDEN                    ',
                              'Met_AIRVOL                    ',
                              'Met_ALBD                      ',
                              'Met_AVGW                      ',
                              'Met_BXHEIGHT                  ',
                              'Met_ChemGridLev               ',
                              'Met_CLDF                      ',
                              'Met_CLDFRC                    ',
                              'Met_CLDTOPS                   ',
                              'Met_CONVDEPTH                 ',
                              'Met_DELP                      ',
                              'Met_DELPDRY                   ',
                              'Met_DQRCU                     ',
                              'Met_DQRLSAN                   ',
                              'Met_DTRAIN                    ',
                              'Met_EFLUX                     ',
                              'Met_FLASHDENS                 ',
                              'Met_FRCLND                    ',
                              'Met_FRLAKE                    ',
                              'Met_FRLAND                    ',
                              'Met_FRLANDIC                  ',
                              'Met_FROCEAN                   ',
                              'Met_FRSEAICE                  ',
                              'Met_FRSNO                     ',
                              'Met_GWETROOT                  ',
                              'Met_GWETTOP                   ',
                              'Met_HFLUX                     ',
                              'Met_LAI                       ',
                              'Met_PARDR                     ',
                              'Met_PARDF                     ',
                              'Met_PBLTOPL                   ',
                              'Met_PBLH                      ',
                              'Met_PHIS                      ',
                              'Met_PMID                      ',
                              'Met_PMIDDRY                   ',
                              'Met_PRECANV                   ',
                              'Met_PRECCON                   ',
                              'Met_PRECLSC                   ',
                              'Met_PRECTOT                   ',
                              'Met_PS1DRY                    ',
                              'Met_PS1WET                    ',
                              'Met_PS2DRY                    ',
                              'Met_PS2WET                    ',
                              'Met_PSC2WET                   ',
                              'Met_PSC2DRY                   ',
                              'Met_QI                        ',
                              'Met_QL                        ',
                              'Met_OMEGA                     ',
                              'Met_OPTD                      ',
                              'Met_REEVAPCN                  ',
                              'Met_REEVAPLS                  ',
                              'Met_SLP                       ',
                              'Met_SNODP                     ',
                              'Met_SNOMAS                    ',
                              'Met_SPHU                      ',
                              'Met_SPHU1                     ',
                              'Met_SPHU2                     ',
                              'Met_SUNCOS                    ',
                              'Met_SUNCOSmid                 ',
                              'Met_SWGDN                     ',
                              'Met_T                         ',
                              'Met_TAUCLI                    ',
                              'Met_TAUCLW                    ',
                              'Met_THETA                     ',
                              'Met_TMPU1                     ',
                              'Met_TMPU2                     ',
                              'Met_TO3                       ',
                              'Met_TropHt                    ',
                              'Met_TropLev                   ',
                              'Met_TropP                     ',
                              'Met_TS                        ',
                              'Met_TSKIN                     ',
                              'Met_TV                        ',
                              'Met_U                         ',
                              'Met_U10M                      ',
                              'Met_USTAR                     ',
                              'Met_UVALBEDO                  ',
                              'Met_V                         ',
                              'Met_V10M                      ',
                              'Met_Z0                        ',
                              'FracOfTimeInTrop              ',
::
#==============================================================================
# %%%%% THE StratBM COLLECTION %%%%%
#
# Fields needed for GEOS-Chem 10-year stratospheric benchmarks
#
# Available for full-chemistry simulations
#==============================================================================
  StratBM.template:       '%y4%m2%d2_%h2%n2z.nc4',
  StratBM.frequency:      00000000 010000
  StratBM.duration:       00000001 000000
  StratBM.mode:           'time-averaged'
  StratBM.fields:         'SpeciesConcVV_NO2                 ',
                          'SpeciesConcVV_O3                  ',
                          'SpeciesConcVV_ClO                 ',
                          'Met_PSC2WET                       ',
                          'Met_BXHEIGHT                      ',
                          'Met_AIRDEN                        ',
                          'Met_AD                            ',
::