###############################################################################
###  HISTORY.rc file for GEOS-Chem full chemistry simulations               ###
###  Contact: GEOS-Chem Support Team (geos-chem-support@g.harvard.edu)      ###
###############################################################################

#============================================================================
# This HISTORY.rc file is specific for running GEOS-Chem within the
# Community Earth System Model (CESM)
#
# There are two steps to configure GEOS-Chem "History" diagnostics in CESM:
#
# 1) Uncomment the names of the diagnostics you wish to output in this file.
#    Make sure the collections they are included in are also uncommented in the
#    COLLECTIONS list at the top of the file.
#
# 2) Write the names of the diagnostics you wish to output into the 'finclX'
#    namelist variable in CESM case file 'user_nl_cam'. Use that file instead
#    of this one to configure averaging/instantaneous, frequency, duration,
#    and other collection features in the same way as other CESM outputs.
#
# Important notes:
#
# 1) Collection name, frequency, duration, and mode in this file are ignored.
#    CESM diagnostic collections and their attributes must be specified in
#    file 'user_nl_cam' within the CESM case directory.
#
# 2) Mixing ratio diagnostics are always available without using this file.
#    For example, you may output ozone mixing ratio by specifying
#    'O3' in CESM file 'user_nl_cam' rather than 'SpeciesConc_O3'.
#    The SpeciesConc collection is therefore excluded. Note that the CESM
#    mixing ratio diagnostics are computed from State_Chm%Species(N)%Conc
#    rather than State_Diag%SpeciesConc.
#
# 3) Diagnostic name wildcards (e.g. ?ADV?) are NOT available for use in CESM.
#    All diagnostic tags, such as 'O2' in 'JVAL_O2', must be written out
#    explicitly.
#
# 4) Many physical/chemical processes in CESM are handled outside of GEOS-Chem,
#    such as wet deposition and advection. GEOS-Chem diagnostics computed in
#    those components are therefore not available and are excluded in this file.
#
#============================================================================

#============================================================================
# EXPID allows you to specify the beginning of the file path corresponding
# to each diagnostic collection.  For example:
#
#   EXPID: ./GEOSChem
#      Will create netCDF files whose names begin "GEOSChem",
#      in this run directory.
#
#   EXPID: ./OutputDir/GEOSChem
#      Will create netCDF files whose names begin with "GEOSChem"
#      in the OutputDir sub-folder of this run directory.
#
#============================================================================
EXPID:  ./IGNORED_USE_user_nl_cam

#==============================================================================
# %%%%% COLLECTION NAME DECLARATIONS %%%%%
#
# To enable a collection, remove the "#" character in front of its name. The
# Restart collection should always be turned on.
#
# NOTE: These are the "default" collections for GEOS-Chem, but you can create
# your own customized diagnostic collections as well.
#==============================================================================
COLLECTIONS: 'Metrics',
             #'AerosolMass',
             #'Aerosols',
             #'Budget',
             #'CloudConvFlux',
             ##'ConcAboveSfc',
             #'ConcAfterChem',
             #'DryDep',
             'JValues',
             #'KppDiags',
             #'LevelEdgeDiags',
             'ProdLoss',
             'StateChm',
             #'StateMet',
             #'StratBM',
::
###############################################################################
### The rest of this file consists of collection definitions.               ###
### Above collections whose declarations are commented out will be ignored. ###
### Make sure that each collection definition, as well as the list of       ###
### collections above, ends with a double-colon ("::").                     ###
###############################################################################

#==============================================================================
# %%%%% THE Metrics COLLECTION %%%%%
#
# Diagnostics for chemistry metrics such as global mean OH concentration,
# MCF lifetime, and CH4 lifetime.
#
# This diagnostic collection should always be left on.
# Use the run-directory script ./metrics_fullchem.py to print results.
#
# Available for full-chemistry and CH4 simulations only.
#==============================================================================
  Metrics.template:           '%y4%m2%d2_%h2%n2z.nc4',
  Metrics.frequency:          'End',
  Metrics.duration:           'End',
  Metrics.mode:               'time-averaged'
  Metrics.fields:             'AirMassColumnFull             ', 'GIGCchem',
                              'LossOHbyCH4columnTrop         ', 'GIGCchem',
                              'LossOHbyMCFcolumnTrop         ', 'GIGCchem',
                              'OHwgtByAirMassColumnFull      ', 'GIGCchem',
::
#==============================================================================
# %%%%% THE AerosolMass COLLECTION %%%%%
#
# Aerosol and PM2.5 mass
#
# Available for full-chemistry and aerosol-only simulations
#==============================================================================
  AerosolMass.template:       '%y4%m2%d2_%h2%n2z.nc4',
  AerosolMass.frequency:      {FREQUENCY}
  AerosolMass.duration:       {DURATION}
  AerosolMass.mode:           'time-averaged'
  AerosolMass.fields:         'AerMassASOA                  ', 'GIGCchem',
                              'AerMassBC                    ', 'GIGCchem',
                              'AerMassINDIOL                ', 'GIGCchem',
                              'AerMassLVOCOA                ', 'GIGCchem',
                              'AerMassNH4                   ', 'GIGCchem',
                              'AerMassNIT                   ', 'GIGCchem',
                              'AerMassOPOA                  ', 'GIGCchem',
                              'AerMassPOA                   ', 'GIGCchem',
                              'AerMassSAL                   ', 'GIGCchem',
                              'AerMassSO4                   ', 'GIGCchem',
                              'AerMassSOAGX                 ', 'GIGCchem',
                              'AerMassSOAIE                 ', 'GIGCchem',
                              'AerMassTSOA                  ', 'GIGCchem',
                              'BetaNO                       ', 'GIGCchem',
                              'PM25                         ', 'GIGCchem',
                              'TotalBiogenicOA              ', 'GIGCchem',
                              'TotalOA                      ', 'GIGCchem',
                              'TotalOC                      ', 'GIGCchem',
::
#==============================================================================
# %%%%% The Aerosols COLLECTION %%%%%
#
# Aerosol optical depth, surface area, number density, and hygroscopic growth
#
# Available for full-chemistry or aerosol-only simulations
#==============================================================================
  Aerosols.template:          '%y4%m2%d2_%h2%n2z.nc4',
  Aerosols.frequency:         {FREQUENCY}
  Aerosols.duration:          {DURATION}
  Aerosols.mode:              'time-averaged'
  Aerosols.fields:            'AODDust                       ', 'GIGCchem',
                              'AODDustWL1_?DUSTBIN?          ', 'GIGCchem',
                              'AODHygWL1_?HYG?               ', 'GIGCchem',
                              'AODSOAfromAqIsopreneWL1       ', 'GIGCchem',
                              'AODStratLiquidAerWL1          ', 'GIGCchem',
                              'AODPolarStratCloudWL1         ', 'GIGCchem',
                              'AerHygroscopicGrowth_?HYG?    ', 'GIGCchem',
                              'AerNumDensityStratLiquid      ', 'GIGCchem',
                              'AerNumDensityStratParticulate ', 'GIGCchem',
                              'AerAqueousVolume              ', 'GIGCchem',
                              'AerSurfAreaDust               ', 'GIGCchem',
                              'AerSurfAreaHyg_?HYG?          ', 'GIGCchem',
                              'AerSurfAreaStratLiquid        ', 'GIGCchem',
                              'AerSurfAreaPolarStratCloud    ', 'GIGCchem',
                              'Chem_AeroAreaMDUST1           ', 'GIGCchem',
                              'Chem_AeroAreaMDUST2           ', 'GIGCchem',
                              'Chem_AeroAreaMDUST3           ', 'GIGCchem',
                              'Chem_AeroAreaMDUST4           ', 'GIGCchem',
                              'Chem_AeroAreaMDUST5           ', 'GIGCchem',
                              'Chem_AeroAreaMDUST6           ', 'GIGCchem',
                              'Chem_AeroAreaMDUST7           ', 'GIGCchem',
                              'Chem_AeroAreaSULF             ', 'GIGCchem',
                              'Chem_AeroAreaBC               ', 'GIGCchem',
                              'Chem_AeroAreaOC               ', 'GIGCchem',
                              'Chem_AeroAreaSSA              ', 'GIGCchem',
                              'Chem_AeroAreaSSC              ', 'GIGCchem',
                              'Chem_AeroAreaBGSULF           ', 'GIGCchem',
                              'Chem_AeroAreaICEI             ', 'GIGCchem',
                              'Chem_AeroRadiMDUST1           ', 'GIGCchem',
                              'Chem_AeroRadiMDUST2           ', 'GIGCchem',
                              'Chem_AeroRadiMDUST3           ', 'GIGCchem',
                              'Chem_AeroRadiMDUST4           ', 'GIGCchem',
                              'Chem_AeroRadiMDUST5           ', 'GIGCchem',
                              'Chem_AeroRadiMDUST6           ', 'GIGCchem',
                              'Chem_AeroRadiMDUST7           ', 'GIGCchem',
                              'Chem_AeroRadiSULF             ', 'GIGCchem',
                              'Chem_AeroRadiBC               ', 'GIGCchem',
                              'Chem_AeroRadiOC               ', 'GIGCchem',
                              'Chem_AeroRadiSSA              ', 'GIGCchem',
                              'Chem_AeroRadiSSC              ', 'GIGCchem',
                              'Chem_AeroRadiBGSULF           ', 'GIGCchem',
                              'Chem_AeroRadiICEI             ', 'GIGCchem',
                              'Chem_WetAeroAreaMDUST1        ', 'GIGCchem',
                              'Chem_WetAeroAreaMDUST2        ', 'GIGCchem',
                              'Chem_WetAeroAreaMDUST3        ', 'GIGCchem',
                              'Chem_WetAeroAreaMDUST4        ', 'GIGCchem',
                              'Chem_WetAeroAreaMDUST5        ', 'GIGCchem',
                              'Chem_WetAeroAreaMDUST6        ', 'GIGCchem',
                              'Chem_WetAeroAreaMDUST7        ', 'GIGCchem',
                              'Chem_WetAeroAreaSULF          ', 'GIGCchem',
                              'Chem_WetAeroAreaBC            ', 'GIGCchem',
                              'Chem_WetAeroAreaOC            ', 'GIGCchem',
                              'Chem_WetAeroAreaSSA           ', 'GIGCchem',
                              'Chem_WetAeroAreaSSC           ', 'GIGCchem',
                              'Chem_WetAeroAreaBGSULF        ', 'GIGCchem',
                              'Chem_WetAeroAreaICEI          ', 'GIGCchem',
                              'Chem_WetAeroRadiMDUST1        ', 'GIGCchem',
                              'Chem_WetAeroRadiMDUST2        ', 'GIGCchem',
                              'Chem_WetAeroRadiMDUST3        ', 'GIGCchem',
                              'Chem_WetAeroRadiMDUST4        ', 'GIGCchem',
                              'Chem_WetAeroRadiMDUST5        ', 'GIGCchem',
                              'Chem_WetAeroRadiMDUST6        ', 'GIGCchem',
                              'Chem_WetAeroRadiMDUST7        ', 'GIGCchem',
                              'Chem_WetAeroRadiSULF          ', 'GIGCchem',
                              'Chem_WetAeroRadiBC            ', 'GIGCchem',
                              'Chem_WetAeroRadiOC            ', 'GIGCchem',
                              'Chem_WetAeroRadiSSA           ', 'GIGCchem',
                              'Chem_WetAeroRadiSSC           ', 'GIGCchem',
                              'Chem_WetAeroRadiBGSULF        ', 'GIGCchem',
                              'Chem_WetAeroRadiICEI          ', 'GIGCchem',
                              'Chem_StatePSC                 ', 'GIGCchem',
                              'Chem_KhetiSLAN2O5H2O          ', 'GIGCchem',
                              'Chem_KhetiSLAN2O5HCl          ', 'GIGCchem',
                              'Chem_KhetiSLAClNO3H2O         ', 'GIGCchem',
                              'Chem_KhetiSLAClNO3HCl         ', 'GIGCchem',
                              'Chem_KhetiSLAClNO3HBr         ', 'GIGCchem',
                              'Chem_KhetiSLABrNO3H2O         ', 'GIGCchem',
                              'Chem_KhetiSLABrNO3HCl         ', 'GIGCchem',
                              'Chem_KhetiSLAHOClHCl          ', 'GIGCchem',
                              'Chem_KhetiSLAHOClHBr          ', 'GIGCchem',
                              'Chem_KhetiSLAHOBrHCl          ', 'GIGCchem',
                              'Chem_KhetiSLAHOBrHBr          ', 'GIGCchem',
::
#==============================================================================
# %%%%% THE Budget COLLECTION %%%%%
#
# GEOS-Chem budget diagnostics defined as species kg/s in the column
# (full, troposphere, or PBL) due to a single component (e.g. chemistry)
# (default = advected species)
#
# Available for all simulations
#==============================================================================
  Budget.template:     '%y4%m2%d2_%h2%n2z.nc4',
  Budget.frequency:    {FREQUENCY}
  Budget.duration:     {DURATION}
  Budget.mode:         'time-averaged'
  Budget.fields:       'BudgetEmisDryDepFull_?ADV?           ', 'GIGCchem',
                       'BudgetEmisDryDepTrop_?ADV?           ', 'GIGCchem',
                       'BudgetEmisDryDepPBL_?ADV?            ', 'GIGCchem',
                       'BudgetChemistryFull_?ADV?            ', 'GIGCchem',
                       'BudgetChemistryTrop_?ADV?            ', 'GIGCchem',
                       'BudgetChemistryPBL_?ADV?             ', 'GIGCchem',
                       'BudgetTransportFull_?ADV?            ', 'GIGCchem',
                       'BudgetTransportTrop_?ADV?            ', 'GIGCchem',
                       'BudgetTransportPBL_?ADV?             ', 'GIGCchem',
                       'BudgetMixingFull_?ADV?               ', 'GIGCchem',
                       'BudgetMixingTrop_?ADV?               ', 'GIGCchem',
                       'BudgetMixingPBL_?ADV?                ', 'GIGCchem',
                       'BudgetConvectionFull_?ADV?           ', 'GIGCchem',
                       'BudgetConvectionTrop_?ADV?           ', 'GIGCchem',
                       'BudgetConvectionPBL_?ADV?            ', 'GIGCchem',
                       'BudgetWetDepFull_?WET?               ', 'GIGCchem',
                       'BudgetWetDepTrop_?WET?               ', 'GIGCchem',
                       'BudgetWetDepPBL_?WET?                ', 'GIGCchem',
::
#==============================================================================
# %%%%% THE CloudConvFlux COLLECTION %%%%%
#
# Cloud convective flux (default = advected species)
#
# Available for all simulations
#==============================================================================
  CloudConvFlux.template:     '%y4%m2%d2_%h2%n2z.nc4',
  CloudConvFlux.frequency:    {FREQUENCY}
  CloudConvFlux.duration:     {DURATION}
  CloudConvFlux.mode:         'time-averaged'
  CloudConvFlux.fields:       'CloudConvFlux_?ADV?           ', 'GIGCchem',
::
#==============================================================================
# %%%%% THE ConcAboveSfc COLLECTION %%%%%
#
# Concentrations of O3 and HNO3 at a user-specified altitude above
# the surface, such as 10m.  Set the desired output altitude in meters
# in the deposition settings in geoschem_config.yml.
#
# NOTES:
# (1) This collection requires dry deposition to be turned on.
# (2) All of the fields in the collection must be turned on.
# (3) This collection is best used with mode "instantaneous".
#==============================================================================
  ConcAboveSfc.template:      '%y4%m2%d2_%h2%n2z.nc4',
  ConcAboveSfc.frequency:     {FREQUENCY}
  ConcAboveSfc.duration:      {DURATION}
  ConcAboveSfc.mode:          'instantaneous'
  ConcAboveSfc.fields:        'DryDepRaALT1                  ', 'GIGCchem',
                              'DryDepVelForALT1_?DRYALT?     ', 'GIGCchem',
                              'SpeciesConcALT1_?DRYALT?      ', 'GIGCchem',
::
#==============================================================================
# %%%%% THE ConcAfterChem COLLECTION %%%%%
#
# Concentrations of OH, HO2, O1D, O3P immediately after exiting the KPP solver
# or OH after the CH4 specialty-simulation chemistry routine.
#
# OH:       Available for all full-chemistry simulations and CH4 specialty sim
# HO2:      Available for all full-chemistry simulations
# O1D, O3P: Availalbe for full-chemistry simulations using UCX mechanism
#==============================================================================
  ConcAfterChem.template:     '%y4%m2%d2_%h2%n2z.nc4',
  ConcAfterChem.frequency:    {FREQUENCY}
  ConcAfterChem.duration:     {DURATION}
  ConcAfterChem.mode:         'time-averaged'
  ConcAfterChem.fields:       'OHconcAfterChem               ', 'GIGCchem',
                              'HO2concAfterChem              ', 'GIGCchem',
                              'O1DconcAfterChem              ', 'GIGCchem',
                              'O3PconcAfterChem              ', 'GIGCchem',
::
#==============================================================================
# %%%%% THE JValues COLLECTION %%%%%
#
# Photolysis rates and UV fluxes (from the FAST-JX photolysis module)
#
# Available for all full-chemistry simulations
#==============================================================================
  JValues.template:           '%y4%m2%d2_%h2%n2z.nc4',
  JValues.frequency:          {FREQUENCY}
  JValues.duration:           {DURATION}
  JValues.mode:               'time-averaged'
  JValues.fields:             'JvalO3O3P              ', 'GCHPchem',
                              'JvalO3O1D              ', 'GCHPchem',
                              'Jval_O2                ', 'GCHPchem',
                              'Jval_SO4               ', 'GCHPchem',
                              'Jval_RP                ', 'GCHPchem',
                              'Jval_RIPD              ', 'GCHPchem',
                              'Jval_RIPC              ', 'GCHPchem',
                              'Jval_RIPB              ', 'GCHPchem',
                              'Jval_RIPA              ', 'GCHPchem',
                              'Jval_RCHO              ', 'GCHPchem',
                              'Jval_RB3P              ', 'GCHPchem',
                              'Jval_RA3P              ', 'GCHPchem',
                              'Jval_R4P               ', 'GCHPchem',
                              'Jval_R4N2              ', 'GCHPchem',
                              'Jval_PYAC              ', 'GCHPchem',
                              'Jval_PRPN              ', 'GCHPchem',
                              'Jval_PROPNN            ', 'GCHPchem',
                              'Jval_PP                ', 'GCHPchem',
                              'Jval_PIP               ', 'GCHPchem',
                              'Jval_PAN               ', 'GCHPchem',
                              'Jval_OIO               ', 'GCHPchem',
                              'Jval_OCS               ', 'GCHPchem',
                              'Jval_OClO              ', 'GCHPchem',
                              'Jval_O3                ', 'GCHPchem',
                              'Jval_NPRNO3            ', 'GCHPchem',
                              'Jval_NO3               ', 'GCHPchem',
                              'Jval_NO2               ', 'GCHPchem',
                              'Jval_NO                ', 'GCHPchem',
                              'Jval_NITs              ', 'GCHPchem',
                              'Jval_NIT               ', 'GCHPchem',
                              'Jval_N2O5              ', 'GCHPchem',
                              'Jval_N2O               ', 'GCHPchem',
                              'Jval_MVKPC             ', 'GCHPchem',
                              'Jval_MVKN              ', 'GCHPchem',
                              'Jval_MVKHP             ', 'GCHPchem',
                              'Jval_MVKHCB            ', 'GCHPchem',
                              'Jval_MVKHC             ', 'GCHPchem',
                              'Jval_MVK               ', 'GCHPchem',
                              'Jval_MPN               ', 'GCHPchem',
                              'Jval_MPAN              ', 'GCHPchem',
                              'Jval_MP                ', 'GCHPchem',
                              'Jval_MONITU            ', 'GCHPchem',
                              'Jval_MONITS            ', 'GCHPchem',
                              'Jval_MGLY              ', 'GCHPchem',
                              'Jval_MENO3             ', 'GCHPchem',
                              'Jval_MEK               ', 'GCHPchem',
                              'Jval_MCRHP             ', 'GCHPchem',
                              'Jval_MCRHNB            ', 'GCHPchem',
                              'Jval_MCRHN             ', 'GCHPchem',
                              'Jval_MCRENOL           ', 'GCHPchem',
                              'Jval_MAP               ', 'GCHPchem',
                              'Jval_MACR1OOH          ', 'GCHPchem',
                              'Jval_MACR              ', 'GCHPchem',
                              'Jval_ITHN              ', 'GCHPchem',
                              'Jval_ITCN              ', 'GCHPchem',
                              'Jval_IPRNO3            ', 'GCHPchem',
                              'Jval_IONO2             ', 'GCHPchem',
                              'Jval_IONO              ', 'GCHPchem',
                              'Jval_IO                ', 'GCHPchem',
                              'Jval_INPD              ', 'GCHPchem',
                              'Jval_INPB              ', 'GCHPchem',
                              'Jval_INO               ', 'GCHPchem',
                              'Jval_IHN4              ', 'GCHPchem',
                              'Jval_IHN3              ', 'GCHPchem',
                              'Jval_IHN2              ', 'GCHPchem',
                              'Jval_IHN1              ', 'GCHPchem',
                              'Jval_IDN               ', 'GCHPchem',
                              'Jval_IDHPE             ', 'GCHPchem',
                              'Jval_IDHDP             ', 'GCHPchem',
                              'Jval_IDCHP             ', 'GCHPchem',
                              'Jval_ICPDH             ', 'GCHPchem',
                              'Jval_ICN               ', 'GCHPchem',
                              'Jval_ICl               ', 'GCHPchem',
                              'Jval_IBr               ', 'GCHPchem',
                              'Jval_I2O4              ', 'GCHPchem',
                              'Jval_I2O3              ', 'GCHPchem',
                              'Jval_I2O2              ', 'GCHPchem',
                              'Jval_I2                ', 'GCHPchem',
                              'Jval_HPETHNL           ', 'GCHPchem',
                              'Jval_HPALD4            ', 'GCHPchem',
                              'Jval_HPALD3            ', 'GCHPchem',
                              'Jval_HPALD2            ', 'GCHPchem',
                              'Jval_HPALD1            ', 'GCHPchem',
                              'Jval_HONIT             ', 'GCHPchem',
                              'Jval_HOI               ', 'GCHPchem',
                              'Jval_HOCl              ', 'GCHPchem',
                              'Jval_HOBr              ', 'GCHPchem',
                              'Jval_HNO4              ', 'GCHPchem',
                              'Jval_HNO3              ', 'GCHPchem',
                              'Jval_HNO2              ', 'GCHPchem',
                              'Jval_HMHP              ', 'GCHPchem',
                              'Jval_HCFC22            ', 'GCHPchem',
                              'Jval_HCFC142b          ', 'GCHPchem',
                              'Jval_HCFC141b          ', 'GCHPchem',
                              'Jval_HCFC123           ', 'GCHPchem',
                              'Jval_HC5A              ', 'GCHPchem',
                              'Jval_HAC               ', 'GCHPchem',
                              'Jval_H2O2              ', 'GCHPchem',
                              'Jval_H2402             ', 'GCHPchem',
                              'Jval_H1301             ', 'GCHPchem',
                              'Jval_H1211             ', 'GCHPchem',
                              'Jval_GLYX              ', 'GCHPchem',
                              'Jval_GLYC              ', 'GCHPchem',
                              'Jval_ETP               ', 'GCHPchem',
                              'Jval_ETNO3             ', 'GCHPchem',
                              'Jval_ETHP              ', 'GCHPchem',
                              'Jval_ETHLN             ', 'GCHPchem',
                              'Jval_ClOO              ', 'GCHPchem',
                              'Jval_ClO               ', 'GCHPchem',
                              'Jval_ClNO3             ', 'GCHPchem',
                              'Jval_ClNO2             ', 'GCHPchem',
                              'Jval_Cl2O2             ', 'GCHPchem',
                              'Jval_Cl2               ', 'GCHPchem',
                              'Jval_CHCl3             ', 'GCHPchem',
                              'Jval_CHBr3             ', 'GCHPchem',
                              'Jval_CH3I              ', 'GCHPchem',
                              'Jval_CH3Cl             ', 'GCHPchem',
                              'Jval_CH3CCl3           ', 'GCHPchem',
                              'Jval_CH3Br             ', 'GCHPchem',
                              'Jval_CH2O              ', 'GCHPchem',
                              'Jval_CH2ICl            ', 'GCHPchem',
                              'Jval_CH2IBr            ', 'GCHPchem',
                              'Jval_CH2I2             ', 'GCHPchem',
                              'Jval_CH2Cl2            ', 'GCHPchem',
                              'Jval_CH2Br2            ', 'GCHPchem',
                              'Jval_CFC12             ', 'GCHPchem',
                              'Jval_CFC115            ', 'GCHPchem',
                              'Jval_CFC114            ', 'GCHPchem',
                              'Jval_CFC113            ', 'GCHPchem',
                              'Jval_CFC11             ', 'GCHPchem',
                              'Jval_CCl4              ', 'GCHPchem',
                              'Jval_BrO               ', 'GCHPchem',
                              'Jval_BrNO3             ', 'GCHPchem',
                              'Jval_BrNO2             ', 'GCHPchem',
                              'Jval_BrCl              ', 'GCHPchem',
                              'Jval_Br2               ', 'GCHPchem',
                              'Jval_ATOOH             ', 'GCHPchem',
                              'Jval_ALD2              ', 'GCHPchem',
                              'Jval_ACET              ', 'GCHPchem',
                              'UVFluxNet_574nm        ', 'GCHPchem',
                              'UVFluxNet_380nm        ', 'GCHPchem',
                              'UVFluxNet_333nm        ', 'GCHPchem',
                              'UVFluxNet_316nm        ', 'GCHPchem',
                              'UVFluxNet_310nm        ', 'GCHPchem',
                              'UVFluxNet_303nm        ', 'GCHPchem',
                              'UVFluxNet_295nm        ', 'GCHPchem',
                              'UVFluxNet_277nm        ', 'GCHPchem',
                              'UVFluxNet_267nm        ', 'GCHPchem',
                              'UVFluxNet_261nm        ', 'GCHPchem',
                              'UVFluxNet_214nm        ', 'GCHPchem',
                              'UVFluxNet_211nm        ', 'GCHPchem',
                              'UVFluxNet_208nm        ', 'GCHPchem',
                              'UVFluxNet_202nm        ', 'GCHPchem',
                              'UVFluxNet_196nm        ', 'GCHPchem',
                              'UVFluxNet_193nm        ', 'GCHPchem',
                              'UVFluxNet_191nm        ', 'GCHPchem',
                              'UVFluxNet_187nm        ', 'GCHPchem',
                              'UVFluxDirect_574nm     ', 'GCHPchem',
                              'UVFluxDirect_380nm     ', 'GCHPchem',
                              'UVFluxDirect_333nm     ', 'GCHPchem',
                              'UVFluxDirect_316nm     ', 'GCHPchem',
                              'UVFluxDirect_310nm     ', 'GCHPchem',
                              'UVFluxDirect_303nm     ', 'GCHPchem',
                              'UVFluxDirect_295nm     ', 'GCHPchem',
                              'UVFluxDirect_277nm     ', 'GCHPchem',
                              'UVFluxDirect_267nm     ', 'GCHPchem',
                              'UVFluxDirect_261nm     ', 'GCHPchem',
                              'UVFluxDirect_214nm     ', 'GCHPchem',
                              'UVFluxDirect_211nm     ', 'GCHPchem',
                              'UVFluxDirect_208nm     ', 'GCHPchem',
                              'UVFluxDirect_202nm     ', 'GCHPchem',
                              'UVFluxDirect_196nm     ', 'GCHPchem',
                              'UVFluxDirect_193nm     ', 'GCHPchem',
                              'UVFluxDirect_191nm     ', 'GCHPchem',
                              'UVFluxDirect_187nm     ', 'GCHPchem',
                              'UVFluxDiffuse_574nm    ', 'GCHPchem',
                              'UVFluxDiffuse_380nm    ', 'GCHPchem',
                              'UVFluxDiffuse_333nm    ', 'GCHPchem',
                              'UVFluxDiffuse_316nm    ', 'GCHPchem',
                              'UVFluxDiffuse_310nm    ', 'GCHPchem',
                              'UVFluxDiffuse_303nm    ', 'GCHPchem',
                              'UVFluxDiffuse_295nm    ', 'GCHPchem',
                              'UVFluxDiffuse_277nm    ', 'GCHPchem',
                              'UVFluxDiffuse_267nm    ', 'GCHPchem',
                              'UVFluxDiffuse_261nm    ', 'GCHPchem',
                              'UVFluxDiffuse_214nm    ', 'GCHPchem',
                              'UVFluxDiffuse_211nm    ', 'GCHPchem',
                              'UVFluxDiffuse_208nm    ', 'GCHPchem',
                              'UVFluxDiffuse_202nm    ', 'GCHPchem',
                              'UVFluxDiffuse_196nm    ', 'GCHPchem',
                              'UVFluxDiffuse_193nm    ', 'GCHPchem',
                              'UVFluxDiffuse_191nm    ', 'GCHPchem',
                              'UVFluxDiffuse_187nm    ', 'GCHPchem',
::
#==============================================================================
# %%%%% THE KppDiags COLLECTION %%%%%
#
# Diagnostics from the KPP solver.
#
# Available for full-chemistry simulations (all variations)
#==============================================================================
  KppDiags.template:          '%y4%m2%d2_%h2%n2z.nc4',
  KppDiags.frequency:         {FREQUENCY}
  KppDiags.duration:          {DURATION}
  KppDiags.mode:              'time-averaged'
  KppDiags.fields:            'KppIntCounts                  ', 'GIGCchem',
                              'KppJacCounts                  ', 'GIGCchem',
                              'KppTotSteps                   ', 'GIGCchem',
                              'KppAccSteps                   ', 'GIGCchem',
                              'KppRejSteps                   ', 'GIGCchem',
                              'KppLuDecomps                  ', 'GIGCchem',
                              'KppSubsts                     ', 'GIGCchem',
                              'KppSmDecomps                  ', 'GIGCchem',
::
#==============================================================================
# %%%%% THE LevelEdgeDiags COLLECTION %%%%%
#
# Diagnostics that are defined on grid box level edges
#
# Available for all simulations
#==============================================================================
  LevelEdgeDiags.template:    '%y4%m2%d2_%h2%n2z.nc4',
  LevelEdgeDiags.frequency:   {FREQUENCY}
  LevelEdgeDiags.duration:    {DURATION}
  LevelEdgeDiags.mode:        'time-averaged'
  LevelEdgeDiags.fields:      'Met_CMFMC                     ', 'GIGCchem',
                              'Met_PEDGE                     ', 'GIGCchem',
                              'Met_PEDGEDRY                  ', 'GIGCchem',
                              'Met_PFICU                     ', 'GIGCchem',
                              'Met_PFILSAN                   ', 'GIGCchem',
                              'Met_PFLCU                     ', 'GIGCchem',
                              'Met_PFLLSAN                   ', 'GIGCchem',
::
#==============================================================================
# %%%%% THE ProdLoss COLLECTION %%%%%
#
# Chemical production and loss rates
#
# Available for full-chemistry, aerosol-only, tagO3, and tagCO simulations
#==============================================================================
  ProdLoss.template:          '%y4%m2%d2_%h2%n2z.nc4',
  ProdLoss.frequency:         {FREQUENCY}
  ProdLoss.duration:          {DURATION}
  ProdLoss.mode:              'time-averaged'
  ProdLoss.fields:            'Prod_Ox                       ', 'GIGCchem',
                              'Prod_SO4                      ', 'GIGCchem',
                              'Prod_CO                       ', 'GIGCchem',
                              'Prod_H2O2                     ', 'GIGCchem',
                              'Loss_CH4                      ', 'GIGCchem',
                              'Loss_CO                       ', 'GIGCchem',
                              'Loss_Ox                       ', 'GIGCchem',
                              'ProdBCPIfromBCPO              ', 'GIGCchem',
                              'ProdOCPIfromOCPO              ', 'GIGCchem',
                              'ProdSO4fromH2O2inCloud        ', 'GIGCchem',
                              'ProdSO4fromO2inCloudMetal     ', 'GIGCchem',
                              'ProdSO4fromO3inCloud          ', 'GIGCchem',
                              'ProdSO4fromO3inSeaSalt        ', 'GIGCchem',
                              'ProdSO4fromHOBrInCloud        ', 'GIGCchem',
                              'ProdSO4fromSRO3               ', 'GIGCchem',
                              'ProdSO4fromSRHObr             ', 'GIGCchem',
                              'ProdSO4fromO3s                ', 'GIGCchem',
                              'LossHNO3onSeaSalt             ', 'GIGCchem',
                              'ProdCOfromCH4                 ', 'GIGCchem',
                              'ProdCOfromNMVOC               ', 'GIGCchem',
::
#==============================================================================
# %%%%% THE StateChm COLLECTION %%%%%
#
# Fields of the State_Chm object (see also Aerosols collection)
#
# Available for full-chemistry and aerosols-only simulations
#==============================================================================
  StateChm.template:          '%y4%m2%d2_%h2%n2z.nc4',
  StateChm.frequency:         {FREQUENCY}
  StateChm.duration:          {DURATION}
  StateChm.mode:              'time-averaged'
  StateChm.fields:            'Chem_IsorropAeropHAccum       ', 'GIGCchem',
                              'Chem_IsorropAeropHCoarse      ', 'GIGCchem',
                              'Chem_IsorropHplusAccum        ', 'GIGCchem',
                              'Chem_IsorropHplusCoarse       ', 'GIGCchem',
                              'Chem_IsorropAeroH2OAccum      ', 'GIGCchem',
                              'Chem_IsorropAeroH2OCoarse     ', 'GIGCchem',
                              'Chem_IsorropSulfate           ', 'GIGCchem',
                              'Chem_IsorropNitrateAccum      ', 'GIGCchem',
                              'Chem_IsorropNitrateCoarse     ', 'GIGCchem',
                              'Chem_IsorropChlorideAccum     ', 'GIGCchem',
                              'Chem_IsorropChlorideCoarse    ', 'GIGCchem',
                              'Chem_IsorropBisulfate         ', 'GIGCchem',
                              'Chem_pHCloud                  ', 'GIGCchem',
                              'Chem_isCloud                  ', 'GIGCchem',
                              'Chem_SSAlkAccumMode           ', 'GIGCchem',
                              'Chem_SSAlkCoarseMode          ', 'GIGCchem',
                              'Chem_HSO3AQ                   ', 'GIGCchem',
                              'Chem_SO3AQ                    ', 'GIGCchem',
                              'Chem_fupdateHOBr              ', 'GIGCchem',
                              'Chem_GammaN2O5overall         ', 'GIGCchem',
                              'Chem_GammaN2O5fine            ', 'GIGCchem',
                              'Chem_YieldClNO2fine           ', 'GIGCchem',
::
#==============================================================================
# %%%%% The StateMet COLLECTION %%%%%
#
# Fields of the State_Met object (also see the LevelEdgeDiags collection)
#
# Available for all simulations
#==============================================================================
  StateMet.template:          '%y4%m2%d2_%h2%n2z.nc4',
  StateMet.frequency:         {FREQUENCY}
  StateMet.duration:          {DURATION}
  StateMet.mode:              'time-averaged'
  StateMet.fields:            'Met_AD                        ', 'GIGCchem',
                              'Met_AIRDEN                    ', 'GIGCchem',
                              'Met_AIRVOL                    ', 'GIGCchem',
                              'Met_ALBD                      ', 'GIGCchem',
                              'Met_AVGW                      ', 'GIGCchem',
                              'Met_BXHEIGHT                  ', 'GIGCchem',
                              'Met_ChemGridLev               ', 'GIGCchem',
                              'Met_CLDF                      ', 'GIGCchem',
                              'Met_CLDFRC                    ', 'GIGCchem',
                              'Met_CLDTOPS                   ', 'GIGCchem',
                              'Met_CONVDEPTH                 ', 'GIGCchem',
                              'Met_DELP                      ', 'GIGCchem',
                              'Met_DELPDRY                   ', 'GIGCchem',
                              'Met_DQRCU                     ', 'GIGCchem',
                              'Met_DQRLSAN                   ', 'GIGCchem',
                              'Met_DTRAIN                    ', 'GIGCchem',
                              'Met_EFLUX                     ', 'GIGCchem',
                              'Met_FLASHDENS                 ', 'GIGCchem',
                              'Met_FRCLND                    ', 'GIGCchem',
                              'Met_FRLAKE                    ', 'GIGCchem',
                              'Met_FRLAND                    ', 'GIGCchem',
                              'Met_FRLANDIC                  ', 'GIGCchem',
                              'Met_FROCEAN                   ', 'GIGCchem',
                              'Met_FRSEAICE                  ', 'GIGCchem',
                              'Met_FRSNO                     ', 'GIGCchem',
                              'Met_GWETROOT                  ', 'GIGCchem',
                              'Met_GWETTOP                   ', 'GIGCchem',
                              'Met_HFLUX                     ', 'GIGCchem',
                              'Met_LAI                       ', 'GIGCchem',
                              'Met_LWI                       ', 'GIGCchem',
                              'Met_PARDR                     ', 'GIGCchem',
                              'Met_PARDF                     ', 'GIGCchem',
                              'Met_PBLTOPL                   ', 'GIGCchem',
                              'Met_PBLH                      ', 'GIGCchem',
                              'Met_PHIS                      ', 'GIGCchem',
                              'Met_PMID                      ', 'GIGCchem',
                              'Met_PMIDDRY                   ', 'GIGCchem',
                              'Met_PRECANV                   ', 'GIGCchem',
                              'Met_PRECCON                   ', 'GIGCchem',
                              'Met_PRECLSC                   ', 'GIGCchem',
                              'Met_PRECTOT                   ', 'GIGCchem',
                              'Met_PS1DRY                    ', 'GIGCchem',
                              'Met_PS1WET                    ', 'GIGCchem',
                              'Met_PS2DRY                    ', 'GIGCchem',
                              'Met_PS2WET                    ', 'GIGCchem',
                              'Met_PSC2WET                   ', 'GIGCchem',
                              'Met_PSC2DRY                   ', 'GIGCchem',
                              'Met_QI                        ', 'GIGCchem',
                              'Met_QL                        ', 'GIGCchem',
                              'Met_OMEGA                     ', 'GIGCchem',
                              'Met_OPTD                      ', 'GIGCchem',
                              'Met_REEVAPCN                  ', 'GIGCchem',
                              'Met_REEVAPLS                  ', 'GIGCchem',
                              'Met_SLP                       ', 'GIGCchem',
                              'Met_SNODP                     ', 'GIGCchem',
                              'Met_SNOMAS                    ', 'GIGCchem',
                              'Met_SPHU                      ', 'GIGCchem',
                              'Met_SPHU1                     ', 'GIGCchem',
                              'Met_SPHU2                     ', 'GIGCchem',
                              'Met_SUNCOS                    ', 'GIGCchem',
                              'Met_SUNCOSmid                 ', 'GIGCchem',
                              'Met_SWGDN                     ', 'GIGCchem',
                              'Met_T                         ', 'GIGCchem',
                              'Met_TAUCLI                    ', 'GIGCchem',
                              'Met_TAUCLW                    ', 'GIGCchem',
                              'Met_THETA                     ', 'GIGCchem',
                              'Met_TMPU1                     ', 'GIGCchem',
                              'Met_TMPU2                     ', 'GIGCchem',
                              'Met_TO3                       ', 'GIGCchem',
                              'Met_TropHt                    ', 'GIGCchem',
                              'Met_TropLev                   ', 'GIGCchem',
                              'Met_TropP                     ', 'GIGCchem',
                              'Met_TS                        ', 'GIGCchem',
                              'Met_TSKIN                     ', 'GIGCchem',
                              'Met_TV                        ', 'GIGCchem',
                              'Met_U                         ', 'GIGCchem',
                              'Met_U10M                      ', 'GIGCchem',
                              'Met_USTAR                     ', 'GIGCchem',
                              'Met_UVALBEDO                  ', 'GIGCchem',
                              'Met_V                         ', 'GIGCchem',
                              'Met_V10M                      ', 'GIGCchem',
                              'Met_Z0                        ', 'GIGCchem',
                              'FracOfTimeInTrop              ', 'GIGCchem',
::
#==============================================================================
# %%%%% THE StratBM COLLECTION %%%%%
#
# Fields needed for GEOS-Chem 10-year stratospheric benchmarks
#
# Available for full-chemistry simulations
#==============================================================================
  StratBM.template:       '%y4%m2%d2_%h2%n2z.nc4',
  StratBM.frequency:      00000000 010000
  StratBM.duration:       00000001 000000
  StratBM.mode:           'time-averaged'
  StratBM.fields:         'SpeciesConc_NO2                   ', 'GIGCchem',
                          'SpeciesConc_O3                    ', 'GIGCchem',
                          'SpeciesConc_ClO                   ', 'GIGCchem',
                          'Met_PSC2WET                       ', 'GIGCchem',
                          'Met_BXHEIGHT                      ', 'GIGCchem',
                          'Met_AIRDEN                        ', 'GIGCchem',
                          'Met_AD                            ', 'GIGCchem',
::