#------------------------------------------------------------------------------
#                  GEOS-Chem Global Chemical Transport Model                  !
#------------------------------------------------------------------------------
#BOP
#
# !MODULE: HEMCO_Diagn.rc 
#
# !DESCRIPTION: Configuration file for netCDF diagnostic output from HEMCO.
#\\
#\\
# !REMARKS:
#  Customized for the CO2 simulation.
#
# !REVISION HISTORY:
#  18 Oct 2018 - R. Yantosca - Initial version
#EOP
#------------------------------------------------------------------------------
#BOC
# Name                Spec   ExtNr Cat Hier Dim OutUnit  LongName

EmisCO2_Total         CO2      0   -1   -1   3  kg/m2/s  CO2_total_emissions
EmisCO2_FossilFuel    CO2      0    1   -1   2  kg/m2/s  CO2_anthropogenic_emissions
EmisCO2_Ocean         CO2      0    2   -1   2  kg/m2/s  CO2_ocean_emissions
EmisCO2_BalBiosph     CO2      0    3   -1   2  kg/m2/s  CO2_balanced_biosphere
EmisCO2_NetTerrExch   CO2      0    5   -1   2  kg/m2/s  CO2_net_terrestrial_exchange
EmisCO2_Ship          CO2      0    6   -1   2  kg/m2/s  CO2_ship_emissions
EmisCO2_Aviation      CO2      0    7   -1   3  kg/m2/s  CO2_aviation_emissions
EmisCO2_CO2SurfCorr   CO2      0    8   -1   2  kg/m2/s  CO2_surface_correction_for_CO_oxidation

#NOTE: Biomass burning doesn't seem to work.  Keep here for now.
# Uncomment this if GFED is used
#EmisCO2_Biomass_GFED  CO2     111   1    1   2  kg/m2/s  CO2_biomass_burning_emissions_from_GFED4

# Uncomment this if FINN is used
#EmisCO2_Biomass_FINN CO2     114   1    1   2  kg/m2/s  CO2_biomass_burning_emissions_from_FINN

    
