/home/ucfaea1/Models/GEOS-Chem/Codes/Code.12.9.3