#------------------------------------------------------------------------------
!             GEOS-Chem Global Chemical Transport Model                       !
#------------------------------------------------------------------------------
#
# !DESCRIPTION: Resource file for the GEOSCHEMchem Gridded Component.
#
# !REVISION HISTORY:
#  06 Oct 2009 - P. Le Sager - Initial
#  06 Dec 2009 - da Silva    - Converted from NAMELIST to ESMF Config
#  13 Apr 2010 - R. Yantosca - Added dimension info and tracer names
#  07 Nov 2012 - R. Yantosca - Added placeholder fields for input.geos
#  26 Feb 2013 - R. Yantosca - Added MAX_DEP for Input_Opt
#  19 Mar 2013 - R. Yantosca - Added LINOZ fields for Input_Opt
#  19 Mar 2013 - R. Yantosca - MAX_TRCS should be 53, not 54
#  01 Aug 2014 - M. Long-sca - MAX_TRCS & MAX_DIAG set to 130 & 80, resp.
#  07 Jun 2018 - C.Keller/K.E.Knowland - Change LLSTRAT from 59 to 40, add Calc_VUD_online
#------------------------------------------------------------------------------

#
# %%% Start date/time                %%%
# %%% Used by ut_GEOSCHEM in sandbox %%%
#
UTC_START_DATE:       20050701
UTC_START_TIME:       000000

#
# %%% End date/time                  %%%
# %%% Used by ut_GEOSCHEM in sandbox %%%
#
UTC_END_DATE:         20050702
UTC_END_TIME:         000000

#
# %%% Timesteps [sec] %%%
#
DYNAMICS_TIMESTEP:    1800
CHEMISTRY_TIMESTEP:   1800

#
# %%% Placeholder fields for Input_Opt object %%%
#
MAX_DIAG:             80
MAX_TRCS:             130
MAX_MEMB:             15
MAX_FAMS:             20
MAX_DEP:              55
LINOZ_NFIELDS:         7
LINOZ_NLAT            18
LINOZ_NLEVELS:        25
LINOZ_NMONTHS:        12

# Maximum level used for chemistry. If not extending to the top of the atmosphere,
# production and loss rates from an offline GMI simulation will be applied to the 
# remaining levels (based on GEOS-Chem's linearized stratospheric chemistry scheme). 
# It is recommended to do full chemistry over the entire column, so that LLSTRAT = LM.
# This is the default.
#LLSTRAT:              72

#
# FAST-JX options:
# LLFASTJX are the number of levels used for FAST-JX. The default value for a simulation
# on 72 model levels is 601, and 1201 if running on 132 model levels. 
# FJX_EXTRAL_ITERMAX (defaults: 1 and 5 for 72 and 132 model levels, respectively) and 
# FJX_EXTRAL_ERR (default = 1) are fine tuning parameter that can be used
# to get more control over the FAST-JX calculations. Increase FJX_EXTRAL_ITERMAX if 
# you encounter problems with FAST-JX, e.g. at 132 model levels.
#LLFASTJX:             601 
#FJX_EXTRAL_ITERMAX:   1 
#FJX_EXTRAL_ERR:       1

#
# %%% Run phases (1 or 2. 2 recommended) %%% 
#
RUN_PHASES:        2

#
# %%% Stop if KPP integration fails (default: 1) %%% 
#
KPP_STOP_IF_FAIL:  0


#
# %%% HEMCO configuration file %%%
#
HEMCO_CONFIG:         HEMCO_Config.rc

#
# %%% Log file names for redirecting stdout %%%
#
STDOUT_LOGFILE:       PET%%%%%.GEOSCHEMchem.log
STDOUT_LOGLUN:        6

#
# %%% Initialize all concentrations to zero? ###
#
INIT_ZERO:            0

#
# %%% Use archived convection fields? %%% 
#
ARCHIVED_CONV:        0

# %%% Use MOIST module for convective transport (including washout)
# Make species friendly to moist? If turned on, convection must be turned off in in geoschem_config.yml
Species_friendly_to_moist: 0
# Turn off washout for SO2?
TurnOff_SO2_washout: 1
# Calculate CLDLIQ and CLDICE online based on current conditions (use default GEOS-Chem parameterization otherwise)?
Online_CLDLIQ: 1
# Use online vertical updraft velocity or use default GEOS-Chem parameterization? 
Online_VUD: 1

#
# %%% Tuning parameter to reduce washout efficiency 
# %%% of convective large-scale precip.
# %%% Use at own risk: the effects of setting this 
# %%% parameter to a value between 0.0 and 1.0 are 
# %%% untested! 
#
### cakelle2, 20180828: bug fix, changed from -999.0 to 1.0 
Convective_precip_correction: 1.0

#
# %%% Cap polar tropopause at 200hPa (default=yes)? %%% 
#
Cap_polar_tropopause: 0

#
# %%% Ozonopause value in ppb. If set to <= 0.0, the 
# %%% GEOS-5 tropopause will be used (default) 
#
Use_ozonopause: -999.0

#
# %%% Prescribe stratospheric H2O
#
Prescribe_strat_H2O: 1

# %%% Settings for excluding species from being transported
Reduce_transport_species: 0
Transport_blacklist: CFC115,CFC114,N2O,CFC12,H1301,CFC113,CFC11,CCl4,H2O,H2402,H1211,HCFC142b,HCFC22,HCFC141b,CH3CCl3,CH3Br,CH3Cl,HCFC123

#
# %%% Include short-lived species in internal restart file?
#
Shortlived_species_in_restart: 1

#
# %%% Read initial conditions from external file
# %%% instead of internal state
#
INIT_SPC_FROM_FILE: 0
INIT_SPC_FILE: /discover/nobackup/cakelle2/GCC_Restarts/v13.1.0-beta.1/GEOSChem.Restart.20190801_0000z.edit.incHEMCO.nc4
ONLY_SHORTLIVED_SPECIES: 0
UNIFORM_IF_MISSING: 1.0e-12
DATA_IS_IN_PPBV: 1
ONLY_ON_FIRST_STEP: 1
DATA_ON_GEOS_LEVELS: 1
DO_NOT_OVERWRITE_ABOVE_LEVEL: 59

USE_GMI_MESO: 0
GMI_TEMPLATE: /discover/nobackup/cakelle2/data/GMI/gmi.clim.%spc.geos5.2x25.esmf.nc

#
# %%% Use GMI P/L for O3 (default=no)? %%%
#
Use_GMI_O3_PL:        0

# Options to nudge O3 between level ANAO3L1 and ANAO3L4. If the flag Use_ANA_O3 is set to 1, GEOS-Chem ozone is nudged to
# the analysis field taken from the file specified in ANAO3TMPL. Nudging is performed between levels ANAO3L1 and ANAO3L4
# (level numbers go from 1 = surface to top of atmosphere).
# The value specified in ANAO3FR is used as the 'blending factor', with a smooth vertical transition between zero and full
# nudging between levels ANAO3L1 to ANAO3L2 (lower boundary), and ANAO3L3 to ANAO3L4 (upper boundary), respectively. If
# NUDGE_RELATIVE_TO_TROPOPAUSE is set to a value above 0, the lower boundary will be determined based on the tropopause and
# nudging will be performed from the nearest model level below tropopause plus NUDGE_RELATIVE_TO_TROPOPAUSE. For instance,
# when set to a value of 1, nudging will start on the first level above the tropopause. If set to 3, nudging will begin from
# the 3rd level above tropopause upwards. Vertical smoothing is determined based on the difference between ANAO3L1 and ANAO3L2.
# If the flag 'Use_PCHEM_O3' is enabled, it will use the internal PCHEM O3 to do the nudging instead of the field provided
# in ANAO3TMPL. Use_ANA_O3 must still be enabled in this case.
# If using ANAO3TMPL, it will look for variable ANAO3VAR in that file. The variable units are set in parameter ANAO3VARUNIT. 
# The unit entry is used to align the field with the GEOS-Chem internal state, which is in kg/kg total. Supported units are: 
# 'kg/kg' (assumed to be kg/kg total), 'mol/mol' (assumed to be dry air), 'ppmv' (total), and 'ppbv' (total).
# The input field must be on native GEOS vertical levels (i.e. level 1 = top of atmosphere).
# If no file is found for a given time step, nudging is skipped. Diagnostics 'GCC_ANA_O3_INC' outputs the ozone increments
# added to the GEOS-Chem ozone field.
# A nudging attempt is made at the end of phase two of GEOS-Chem. The nudging frequency and time is determined by three variables:
# ANAO3FREQ determines the update frequency (in hours), ANAO3HR sets the hour offset relative to ANAO3FREQ, and ANAO3MIN sets the
# minutes offset relative to ANAO3FREQ. For example, ANAO3FREQ=3, ANAO3HR=1, ANAO3MIN=30 will perform the nudging every three hours at 0130, 0430, etc.
# Since MAPL History outputs at the beginning of the time step, there is an option to read then analysis
# files in a 'forward looking' mode (ANAO3FWD = 1). For example, an instantaneous ana.eta file with time
# stamp 0600z will contain the fields produced by GEOS-Chem in the previous time step, e.g., at 0545z if
# the chemistry time step is 15 minutes. Thus, any analysis update in GEOS-Chem should be performed one
# time step in advance. If ANAO3FWD is set to 1, the analysis is done that way. Otherwise, the analysis
# will be performed on the actual time stamp, which might create a slight offset in the increments.
# The error mode flag determines what happens if (a) the file is not found or (b) the current time is not found on file. Error
# mode of 0 exits with an error in all cases, 1 skips nudging (default), and 2 skips nudging if file not found and uses the
# first time slice on file if file is found but the current time stamp is not on file.
Use_ANA_O3: 0
ANAO3TMPL: /discover/nobackup/projects/gmao/yotc/pub/fp/das/Y%y4/M%m2/D%d2/GEOS.fp.asm.tavg3_3d_asm_Nv.%y4%m2%d2_%h2%n2.V01.nc4
ANAO3INC: 0
ANAO3VAR: O3
ANAO3VARUNIT: kg/kg
ANAO3FREQ: 3
ANAO3HR: 1
ANAO3MIN: 30
ANAO3FWD: 1
NUDGE_RELATIVE_TO_TROPOPAUSE: 1
ANAO3L1: 38
ANAO3L2: 40
ANAO3L3: 72
ANAO3L4: 72
ANAO3FR: 0.2
Use_PCHEM_O3: 0
ERROR_MODE: 1

# For NO2 analysis
Use_ANA_NO2: 0
ANANO2TMPL: ana_no2.after_gsi.%y4%m2%d2_%h200z.nc4
ANANO2FWD: 1
ANANO2INC: 0
Update_NO: 1
Use_NO2_obshour: 1
ANANO2_TROPONLY: 0

#
# NOx lightning met inputs
#
# Input source for flash rates: If set to 'LFR' or 'LFR_GCC', the corresponding MOIST export is used. If set to any other
# name, will search for that name in the import state. For instance, set it to 'LFR_OFFLINE' and then define an import via
# ExtData to use LFR values from a file. Default is LFR_GCC. All values expected in [flashes km-2 s-1].
# Scale factors can be defined to adjust the imported LFR field for the southern extratropics (<23S), tropics (23S-23N), and
# the northern extratropics (>23N). In addition, a global scale factor can be set to rescale the overall LFR.
# These factors can be used to better match the expected global annual average flash rate of 46 flashes s-1, and a distribution
# of ~65% in the tropics and ~23% in the N extratropics.
#
LIGHTNING_FLASH_RATE_SOURCE: LFR_GCC
LFR_SCALING_SOUTHERN_TROP:   2.0
LFR_SCALING_NORTHERN_TROP:   1.1
LFR_SCALING_TROPICS:         0.4
LFR_SCALING_GLOBAL:          2.0

#
# Input source for convective height: If set to 'CNV_MFC', will compute the convective height from convective mass fluxes
# (default). If set to 'BYNCY', will compute it from the buoyancy and convective fraction. For all other cases, will look
# for the field in import and use that as is. For instance, set it to 'CCTH_OFFLINE' and define an import via ExtData to
# use values from an external file. If read from file, the values must be in [m].
#
LIGHTNING_CONVECTIVE_TOP_SOURCE: CNV_MFC
#

# Turn off heterogenous reactions in stratosphere?
# If true, the following heterogeneous reactions are disabled (in the stratosphere):
# ClNO3(g) + HBr(l,s) --> BrCl + HNO3
# BrNO3(g) + HCl(l,s) --> BrCl + HNO3
# HOCl(g) + HBr(l,s) --> BrCl + H2O
TurnOffHetRates: 1

#
# Enable Bry and Cly family transport
#
Bry_Cly_Family_Transport: 1

# Toggles for internal state fields
Internal_KHETI_SLA_01: 1
Internal_KHETI_SLA_02: 1
Internal_KHETI_SLA_03: 1
Internal_KHETI_SLA_04: 1
Internal_KHETI_SLA_05: 1
Internal_KHETI_SLA_06: 1
Internal_KHETI_SLA_07: 1
Internal_KHETI_SLA_08: 1
Internal_KHETI_SLA_09: 1
Internal_KHETI_SLA_10: 1
Internal_KHETI_SLA_11: 1
Internal_AeroArea_01: 1
Internal_AeroArea_02: 1
Internal_AeroArea_03: 1
Internal_AeroArea_04: 1
Internal_AeroArea_05: 1
Internal_AeroArea_06: 1
Internal_AeroArea_07: 1
Internal_AeroArea_08: 1
Internal_AeroArea_09: 1
Internal_AeroArea_10: 1
Internal_AeroArea_11: 1
Internal_AeroArea_12: 1
Internal_AeroArea_13: 1
Internal_AeroArea_14: 1
Internal_AeroRadi_01: 1
Internal_AeroRadi_02: 1
Internal_AeroRadi_03: 1
Internal_AeroRadi_04: 1
Internal_AeroRadi_05: 1
Internal_AeroRadi_06: 1
Internal_AeroRadi_07: 1
Internal_AeroRadi_08: 1
Internal_AeroRadi_09: 1
Internal_AeroRadi_10: 1
Internal_AeroRadi_11: 1
Internal_AeroRadi_12: 1
Internal_AeroRadi_13: 1
Internal_AeroRadi_14: 1
Internal_WetAeroArea_01: 1
Internal_WetAeroArea_02: 1
Internal_WetAeroArea_03: 1
Internal_WetAeroArea_04: 1
Internal_WetAeroArea_05: 1
Internal_WetAeroArea_06: 1
Internal_WetAeroArea_07: 1
Internal_WetAeroArea_08: 1
Internal_WetAeroArea_09: 1
Internal_WetAeroArea_10: 1
Internal_WetAeroArea_11: 1
Internal_WetAeroArea_12: 1
Internal_WetAeroArea_13: 1
Internal_WetAeroArea_14: 1
Internal_WetAeroRadi_01: 1
Internal_WetAeroRadi_02: 1
Internal_WetAeroRadi_03: 1
Internal_WetAeroRadi_04: 1
Internal_WetAeroRadi_05: 1
Internal_WetAeroRadi_06: 1
Internal_WetAeroRadi_07: 1
Internal_WetAeroRadi_08: 1
Internal_WetAeroRadi_09: 1
Internal_WetAeroRadi_10: 1
Internal_WetAeroRadi_11: 1
Internal_WetAeroRadi_12: 1
Internal_WetAeroRadi_13: 1
Internal_WetAeroRadi_14: 1
Internal_AeroH2O_01: 1
Internal_AeroH2O_02: 1
Internal_AeroH2O_03: 1
Internal_AeroH2O_04: 1
Internal_AeroH2O_05: 1
Internal_AeroH2O_06: 1
Internal_AeroH2O_07: 1
Internal_AeroH2O_08: 1
Internal_AeroH2O_09: 1
Internal_AeroH2O_10: 1
Internal_AeroH2O_11: 1
Internal_AeroH2O_12: 1
Internal_AeroH2O_13: 1
Internal_AeroH2O_14: 1
Internal_GammaN2O5_01: 1
Internal_GammaN2O5_02: 1
Internal_GammaN2O5_03: 1
Internal_SSAlk_01: 1
Internal_SSAlk_02: 1
Internal_OMOC: 1
Internal_OMOC_POA: 1
Internal_OMOC_OPOA: 1
Internal_ACLArea: 1
Internal_ACLRadi: 1
Internal_QLxpHCloud: 1
Internal_phCloud: 1
Internal_isCloud: 1
Internal_HSO3_AQ: 1
Internal_SO3_AQ: 1
Internal_fupdateHOCl: 1
Internal_fupdateHOBr: 1

