---
### geoschem_config.yml: GEOS-Chem Runtime configuration options.
### Customized for GCHP simulations using the TransportTracers mechanism.
###
### NOTE: Add quotes around nitrogen oxide ('NO'), because YAML
### parsers will confuse this with a negative "no" value.

#============================================================================
# Simulation settings
#============================================================================
simulation:
  name: ${RUNDIR_SIM_NAME}
  chem_inputs_dir: ./ChemDir/
  species_database_file: ./species_database.yml
  species_metadata_output_file: OutputDir/geoschem_species_metadata.yml
  debug_printout: false

#============================================================================
# Timesteps settings
#
# These timesteps are determined in setCommonRunSettings.sh since they are
# resolution-dependent for GCHP
#============================================================================
timesteps:
  transport_timestep_in_s: ${RUNDIR_TRANSPORT_TS}
  chemistry_timestep_in_s: ${RUNDIR_CHEMISTRY_TS}

#============================================================================
# Settings for GEOS-Chem operations
#============================================================================
operations:

  chemistry:
    activate: true

  convection:
    activate: true

  dry_deposition:
    activate: true

  pbl_mixing:
     activate: true
     use_non_local_pbl: ${RUNDIR_USE_NLPBL}

  transport:
    activate: true
    transported_species:
      -  Rn222
      -  Pb210
      -  Pb210Strat
      -  Be7
      -  Be7Strat
      -  Be10
      -  Be10Strat
      -  PassiveTracer
      -  CLOCK
      -  SF6Tracer
      -  CH3ITracer
      -  COAnthroEmis25dayTracer
      -  COAnthroEmis50dayTracer
      -  COUniformEmis25dayTracer
    passive_species:
      PassiveTracer:
        long_name: Passive_tracer_for_mass_conservation_evaluation
        mol_wt_in_g: 1.0
        lifetime_in_s: -1
        default_bkg_conc_in_vv: 1.0e-7
      SF6Tracer:
        long_name: Sulfur_hexafluoride
        mol_wt_in_g: 146.0
        lifetime_in_s: -1
        default_bkg_conc_in_vv: 1.0e-20
      CH3ITracer:
        long_name: Methyl_iodide
        mol_wt_in_g: 142.0
        lifetime_in_s: 4.32e5
        default_bkg_conc_in_vv: 1.0e-20
      COAnthroEmis25dayTracer:
        long_name: Anthropogenic_CO_with_25day_lifetime
        mol_wt_in_g: 28.0
        lifetime_in_s: 2.16e6
        default_bkg_conc_in_vv: 1.0e-20
      COAnthroEmis50dayTracer:
        long_name: Anthropogenic_CO_with_50day_lifetime
        mol_wt_in_g: 28.0
        lifetime_in_s: 4.32e6
        default_bkg_conc_in_vv: 1.0e-20
      COUniformEmis25dayTracer:
        long_name: CO_with_uniform_emission_and_25day_lifetime
        mol_wt_in_g: 28.0
        lifetime_in_s: 2.16e6
        default_bkg_conc_in_vv: 1.0e-20

  wet_deposition:
    activate: true
