---
### geoschem_config.yml: GEOS-Chem Runtime configuration options.
### Customized for GCHP simulations using the TransportTracers mechanism.
###
### NOTE: Add quotes around nitrogen oxide ('NO'), because YAML
### parsers will confuse this with a negative "no" value.

#============================================================================
# Simulation settings
#============================================================================
simulation:
  name: ${RUNDIR_SIM_NAME}
  chem_inputs_dir: ./ChemDir/
  species_database_file: ./species_database.yml
  species_metadata_output_file: OutputDir/geoschem_species_metadata.yml
  verbose:
    activate: false
    on_cores: root       # Allowed values: root all

#============================================================================
# Timesteps settings
#
# These timesteps are determined in setCommonRunSettings.sh since they are
# resolution-dependent for GCHP
#============================================================================
timesteps:
  transport_timestep_in_s: ${RUNDIR_TRANSPORT_TS}
  chemistry_timestep_in_s: ${RUNDIR_CHEMISTRY_TS}

#============================================================================
# Settings for GEOS-Chem operations
#============================================================================
operations:

  chemistry:
    activate: true

  convection:
    activate: true

  dry_deposition:
    activate: true

  pbl_mixing:
     activate: true
     use_non_local_pbl: ${RUNDIR_USE_NLPBL}

  transport:
    activate: true
    transported_species:
      -  Rn222
      -  Pb210
      -  Pb210s
      -  Be7
      -  Be7s
      -  Be10
      -  Be10s
      -  aoa
      -  aoa_bl
      -  aoa_nh
      -  CH3I
      -  CO_25
      -  CO_50
      -  e90
      -  e90_n
      -  e90_s
      -  nh_5
      -  nh_50
      -  PassiveTracer
      -  SF6
      -  st80_25

  wet_deposition:
    activate: true
