---
### geoschem_config.yml: GEOS-Chem Runtime configuration options.
### Customized for simulations using the POPs mechanism.
###
### NOTE: Add quotes around nitrogen oxide ('NO'), because YAML
### parsers will confuse this with a negative "no" value.

#============================================================================
# Simulation settings
#============================================================================
simulation:
  name: ${RUNDIR_SIM_NAME}
  start_date: [${RUNDIR_SIM_START_DATE}, ${RUNDIR_SIM_START_TIME}]
  end_date: [${RUNDIR_SIM_END_DATE}, ${RUNDIR_SIM_END_TIME}]
  root_data_dir: ${RUNDIR_DATA_ROOT}
  met_field: ${RUNDIR_MET}
  species_database_file: ./species_database.yml
  species_metadata_output_file: OutputDir/geoschem_species_metadata.yml
  debug_printout: false
  use_gcclassic_timers: ${RUNDIR_USE_GCCLASSIC_TIMERS}

#============================================================================
# Grid settings
#============================================================================
grid:
  resolution: ${RUNDIR_GRID_RES_LONG}
  number_of_levels: ${RUNDIR_GRID_NLEV}
  longitude:
    range: ${RUNDIR_GRID_LON_RANGE}
    center_at_180: ${RUNDIR_CENTER_LON_180}
  latitude:
    range: ${RUNDIR_GRID_LAT_RANGE}
    half_size_polar_boxes: ${RUNDIR_GRID_HALF_POLAR}
  nested_grid_simulation:
    activate: ${RUNDIR_GRID_NESTED_SIM}
    buffer_zone_NSEW: ${RUNDIR_GRID_BUFFER_ZONE}

#============================================================================
# Timesteps settings
#============================================================================
timesteps:
  transport_timestep_in_s: ${RUNDIR_TRANSPORT_TS}
  chemistry_timestep_in_s: ${RUNDIR_CHEMISTRY_TS}

#============================================================================
# Settings for GEOS-Chem operations
#============================================================================
operations:

  chemistry:
    activate: true

  convection:
    activate: true

  dry_deposition:
    activate: true
    diag_alt_above_sfc_in_m: 10

  pbl_mixing:
     activate: true
     use_non_local_pbl: false

  transport:
    gcclassic_tpcore:                 # GEOS-Chem Classic only
      activate: true                  # GEOS-Chem Classic only
      fill_negative_values: true      # GEOS-Chem Classic only
      iord_jord_kord: [3, 3, 7]       # GEOS-Chem Classic only
    transported_species:
      - POPG_${RUNDIR_POP_SPC}
      - POPPOCPO_${RUNDIR_POP_SPC}
      - POPPOCPI_${RUNDIR_POP_SPC}
      - POPPBCPO_${RUNDIR_POP_SPC}
      - POPPBCPI_${RUNDIR_POP_SPC}

  wet_deposition:
    activate: true

#============================================================================
# Settings specific to the POPs simulation
#============================================================================
POPs_simulation_options:
  POP_type: ${RUNDIR_POP_SPC}
  chemistry_processing: true
  POP_XMW: ${RUNDIR_POP_XMW}
  POP_KOA: ${RUNDIR_POP_KOA}
  POP_KBC: ${RUNDIR_POP_KBC}
  POP_K_POPG_OH: ${RUNDIR_POP_K_POPG_OH}
  POP_K_POPP_O3A: ${RUNDIR_POP_K_POPP_O3A}
  POP_K_POPP_O3B: ${RUNDIR_POP_K_POPP_O3B}
  POP_HSTAR: ${RUNDIR_POP_HSTAR}
  POP_DEL_H: ${RUNDIR_POP_DEL_H}
  POP_DEL_Hw: ${RUNDIR_POP_DEL_Hw}
  
#============================================================================
# Settings for diagnostics (other than HISTORY and HEMCO)
#============================================================================
extra_diagnostics:

  obspack:
    activate: false
    quiet_logfile_output: false
    input_file: ./obspack_co2_1_OCO2MIP_2018-11-28.YYYYMMDD.nc
    output_file: ./OutputDir/GEOSChem.ObsPack.YYYYMMDD_hhmmz.nc4
    output_species:
      - POPG_${RUNDIR_POP_SPC}

  planeflight:
    activate: false
    flight_track_file: Planeflight.dat.YYYYMMDD
    output_file: plane.log.YYYYMMDD
