###############################################################################
###  HISTORY.rc file for GEOS-Chem CO2 specialty simulations                ###
###  Contact: GEOS-Chem Support Team (geos-chem-support@g.harvard.edu)      ###
###############################################################################

#============================================================================
# EXPID allows you to specify the beginning of the file path corresponding
# to each diagnostic collection.  For example:
#
#   EXPID: ./GEOSChem 
#      Will create netCDF files whose names begin "GEOSChem",
#      in this run directory.
#
#   EXPID: ./OutputDir/GEOSChem
#      Will create netCDF files whose names begin with "GEOSChem"
#      in the OutputDir sub-folder of this run directory.
#
#============================================================================
EXPID:  ./WRFGC

#==============================================================================
# %%%%% COLLECTION NAME DECLARATIONS %%%%%
#
# To enable a collection, remove the "#" character in front of its name. The
# Restart collection should always be turned on.
#
# NOTE: These are the "default" collections for GEOS-Chem, but you can create
# your own customized diagnostic collections as well.
#==============================================================================
COLLECTIONS: 'CO2',
             'SpeciesConc',
             #'Budget',
             #'CloudConvFlux',
             #'LevelEdgeDiags',      
             #'StateMet',
             #'BoundaryConditions',
::
###############################################################################
### The rest of this file consists of collection definitions.               ###
### Above collections whose declarations are commented out will be ignored. ###
### Make sure that each collection definition, as well as the list of       ###
### collections above, ends with a double-colon ("::").                     ###
###############################################################################

#==============================================================================
# %%%%% THE SpeciesConc COLLECTION %%%%%
#
# GEOS-Chem species concentrations (default = advected species)
#
# Available for all simulations
#==============================================================================
  SpeciesConc.template:       '%y4%m2%d2_%h2%n2z.nc4',
  SpeciesConc.frequency:      00000000 010000,
  SpeciesConc.duration:       00000000 120000,
  SpeciesConc.mode:           'time-averaged'
  SpeciesConc.fields:         'SpeciesConc_?ADV?             ',
::
#==============================================================================
# %%%%% THE Budget COLLECTION %%%%%
#
# GEOS-Chem budget diagnostics defined as species kg/s in the column
# (full, troposphere, or PBL) due to a single component (e.g. chemistry)
# (default = advected species)
#
# Available for all simulations
#==============================================================================
  Budget.template:     '%y4%m2%d2_%h2%n2z.nc4',
  Budget.frequency:    00000000 010000,
  Budget.duration:     00000000 120000,
  Budget.mode:         'time-averaged'
  Budget.fields:       'BudgetEmisDryDepFull_?ADV?           ',  
                       'BudgetEmisDryDepTrop_?ADV?           ',  
                       'BudgetEmisDryDepPBL_?ADV?            ',  
                       'BudgetChemistryFull_?ADV?            ',
                       'BudgetChemistryTrop_?ADV?            ',
                       'BudgetChemistryPBL_?ADV?             ',  
                       'BudgetTransportFull_?ADV?            ',
                       'BudgetTransportTrop_?ADV?            ',
                       'BudgetTransportPBL_?ADV?             ',  
                       'BudgetMixingFull_?ADV?               ',
                       'BudgetMixingTrop_?ADV?               ',
                       'BudgetMixingPBL_?ADV?                ',    
                       'BudgetConvectionFull_?ADV?           ',
                       'BudgetConvectionTrop_?ADV?           ',
                       'BudgetConvectionPBL_?ADV?            ',
::
#==============================================================================
# %%%%% THE CO2 COLLECTION %%%%%
#
# Diagnostics for the CO2 specialty simulation.  (NOTE: Several other relevant
# CO2 specialty-simulation diagnostics are sent to the HEMCO diagnostics.)
#
# Only available for the CO2 specialty simulation only
#==============================================================================
  CO2.template:        '%y4%m2%d2_%h2%n2z.nc4',
  CO2.frequency:       00000000 010000,
  CO2.duration:        00000000 120000,
  CO2.mode:            'time-averaged'
  CO2.fields:          'ProdCO2fromCO                        ',  
::
#==============================================================================
# %%%%% THE CloudConvFlux COLLECTION %%%%%
#
# Cloud convective flux (default = advected species)
#
# Available for all simulations
#==============================================================================
  CloudConvFlux.template:     '%y4%m2%d2_%h2%n2z.nc4',
  CloudConvFlux.frequency:    00000000 010000,
  CloudConvFlux.duration:     00000000 120000,
  CloudConvFlux.mode:         'time-averaged'
  CloudConvFlux.fields:       'CloudConvFlux_?ADV?           ',
::
#==============================================================================
# %%%%% THE LevelEdgeDiags COLLECTION %%%%%
#
# Diagnostics that are defined on grid box level edges
#
# Available for all simulations
#==============================================================================
  LevelEdgeDiags.template:    '%y4%m2%d2_%h2%n2z.nc4',
  LevelEdgeDiags.frequency:   00000000 010000,
  LevelEdgeDiags.duration:    00000000 120000,
  LevelEdgeDiags.mode:        'time-averaged'
  LevelEdgeDiags.fields:      'Met_CMFMC                     ',
                              'Met_PEDGE                     ',
                              'Met_PEDGEDRY                  ',
                              'Met_PFICU                     ',
                              'Met_PFILSAN                   ',
                              'Met_PFLCU                     ',
                              'Met_PFLLSAN                   ',
::