Contact:
GEOS-Chem Support Team at Washington University in St. Louis
geos-chem-support@g.harvard.edu