Contact:
GEOS-Chem Support Team at Washington University in St. Louis
geos-chem-support@g.harvard.edu

Yuanjian Zhang at WashU
yuanjianz @ GitHub
yuanjian.z@wustl.edu