!------------------------------------------------------------------------------
!                  GEOS-Chem Global Chemical Transport Model                  !
!------------------------------------------------------------------------------
!BOI
! !TITLE: GEOS-Chem Reference\\3. Diagnostic Modules
! !AUTHORS: GEOS-Chem Support Team
! !DATE: 10 Jul 2018
!EOI
!------------------------------------------------------------------------------
