!------------------------------------------------------------------------------
!                  GEOS-Chem Global Chemical Transport Model                  !
!------------------------------------------------------------------------------
!BOI
! !TITLE: GEOS-Chem Reference\\2. Core Modules
! !AUTHORS: GEOS-Chem Support Team
! !DATE: 18 Nov 2016
!EOI
!------------------------------------------------------------------------------
