!------------------------------------------------------------------------------
!                  GEOS-Chem Global Chemical Transport Model                  !
!------------------------------------------------------------------------------
!BOS
! !SECTION: Boundary layer mixing modules
! !DESCRIPTION: These modules contain routines to perform the boundary layer mixing.
!EOS
!------------------------------------------------------------------------------m]