!------------------------------------------------------------------------------
!                  GEOS-Chem Global Chemical Transport Model                  !
!------------------------------------------------------------------------------
!BOS
! !SECTION: Meteorological field modules
! !DESCRIPTION: These modules contain routines to read archived meteorology into GEOS-Chem.
!EOS
!------------------------------------------------------------------------------