!------------------------------------------------------------------------------
!                  GEOS-Chem Global Chemical Transport Model                  !
!------------------------------------------------------------------------------
!BOS
! !SECTION: GEOS-Chem driver and other operations
! !DESCRIPTION: These modules contain routines to perform core operations such as initializing a GEOS-Chem simulation, timestepping, reading data from restart files, and cleanup.
!EOS
!------------------------------------------------------------------------------m]