!------------------------------------------------------------------------------
!                  GEOS-Chem Global Chemical Transport Model                  !
!------------------------------------------------------------------------------
!BOS
! !SECTION: Transport modules
! !DESCRIPTION: These modules contain routines to advect GEOS-Chem speecies using assimilated meteorology fields.
!EOS
!------------------------------------------------------------------------------m]