!------------------------------------------------------------------------------
!                  GEOS-Chem Global Chemical Transport Model                  !
!------------------------------------------------------------------------------
!BOP
! !MODULE: GEOS-Chem include files
! !DESCRIPTION: Here follows a list of include files used by the
   GEOS-Chem modules and subroutines.
!EOP
!------------------------------------------------------------------------------