!------------------------------------------------------------------------------
!                  GEOS-Chem Global Chemical Transport Model                  !
!------------------------------------------------------------------------------
!BOI
! !TITLE: GEOS-Chem Reference\\4. The Harvard-NASA Emissions Component (HEMCO)
! !AUTHORS: GEOS-Chem Support Team
! !DATE: 20 Dec 2016
!EOI
!------------------------------------------------------------------------------
