#------------------------------------------------------------------------------
#          Harvard University Atmospheric Chemistry Modeling Group            !
#------------------------------------------------------------------------------
#BOI
# !TITLE: GEOS-Chem Reference, Vol. 1: Makefiles
# !AUTHORS: Bob Yantosca, Claire Carouge, and Philippe Le Sager
# !AFFILIATION: School of Engineering and Applied Sciences, Harvard University
# !DATE: December 16, 2010
#EOI
#------------------------------------------------------------------------------
