!------------------------------------------------------------------------------
!          Harvard University Atmospheric Chemistry Modeling Group            !
!------------------------------------------------------------------------------
!BOI
! !TITLE: GEOS-Chem Reference, Vol. 3: "Core" Modules and Routines
! !AUTHORS: Bob Yantosca, Philippe Le Sager, and Claire Carouge
! !AFFILIATION: School of Engineering and Applied Sciences, Harvard University
! !DATE: December 16, 2010
!EOI
!------------------------------------------------------------------------------
