!------------------------------------------------------------------------------
!          Harvard University Atmospheric Chemistry Modeling Group            !
!------------------------------------------------------------------------------
!BOI
! !TITLE: GEOS-Chem Reference, Vol. 4: Global Terrestrial Mercury Model
! !AUTHORS: Claire Carouge, Bess Corbitt, Chris Holmes, Nicole Smith-Downey
! !AFFILIATION: School of Engineering and Applied Sciences, Harvard University
! !DATE: December 16, 2010
!EOI
!------------------------------------------------------------------------------
