!------------------------------------------------------------------------------
!                  GEOS-Chem Global Chemical Transport Model                  !
!------------------------------------------------------------------------------
!BOI
! !TITLE: GEOS-Chem Reference, Volume 3:\\"Core" Modules and Routines
! !AUTHORS: GEOS-Chem Support Team
! !DATE: 25 Feb 2014
!EOI
!------------------------------------------------------------------------------
