!------------------------------------------------------------------------------
!          Harvard University Atmospheric Chemistry Modeling Group            !
!------------------------------------------------------------------------------
!BOI
! !TITLE: GEOS-Chem Reference, Vol. 3: "Core" Modules and Routines
! !AUTHORS: Bob Yantosca, Michael Long, Melissa Payer and Matthew Cooper
! !AFFILIATION: GEOS-Chem Support Team
! !DATE: 22 August 2011
!EOI
!------------------------------------------------------------------------------
