!------------------------------------------------------------------------------
!                  GEOS-Chem Global Chemical Transport Model                  !
!------------------------------------------------------------------------------
!BOI
! !TITLE: GEOS-Chem Reference, Volume 2:\\Utility Modules
! !AUTHORS: GEOS-Chem Support Team
! !DATE: 30 Apr 2015
!EOI
!------------------------------------------------------------------------------
