!------------------------------------------------------------------------------
!          Harvard University Atmospheric Chemistry Modeling Group            !
!------------------------------------------------------------------------------
!BOI
! !TITLE: The GEOS-Chem Model: Utility Modules
! !AUTHORS: Bob Yantosca, Claire Carouge, and Philippe Le Sager
! !AFFILIATION: School of Engineering and Applied Sciences, Harvard University
! !DATE: August 27, 2010
!EOI
!------------------------------------------------------------------------------
