!------------------------------------------------------------------------------
!          Harvard University Atmospheric Chemistry Modeling Group            !
!------------------------------------------------------------------------------
!BOI
! !TITLE: GEOS-Chem Reference, Vol. 4: Global Terrestrial Mercury Model
! !AUTHORS: GEOS-Chem Support Team
! !DATE: 24 July 2012
!EOI
!------------------------------------------------------------------------------
