#------------------------------------------------------------------------------
#          Harvard University Atmospheric Chemistry Modeling Group            !
#------------------------------------------------------------------------------
#BOI
# !TITLE: GEOS-Chem Reference, Volume 1:\\Makefiles
# !AUTHORS: GEOS-Chem Support Team
# !DATE: 15 Jan 2014
#EOI
#------------------------------------------------------------------------------
