!------------------------------------------------------------------------------
!          Harvard University Atmospheric Chemistry Modeling Group            !
!------------------------------------------------------------------------------
!BOI
! !TITLE: Global Terrestrial Mercury Model (GTMM) Routines in GEOS-Chem
! !AUTHORS: Claire Carouge, Bess Corbitt, Chris Holmes, Nicole Smith-Downey
! !AFFILIATION: School of Engineering and Applied Sciences, Harvard University
! !DATE: August 31, 2010
!EOI
!------------------------------------------------------------------------------
