!------------------------------------------------------------------------------
!                  GEOS-Chem Global Chemical Transport Model                  !
!------------------------------------------------------------------------------
!BOI
! !TITLE: GEOS-Chem Reference, Volume 5:\\The Harvard-NASA Emissions Component (HEMCO)
! !AUTHORS: GEOS-Chem Support Team
! !DATE: 30 Apr 2015
!EOI
!------------------------------------------------------------------------------
