!------------------------------------------------------------------------------
!          Harvard University Atmospheric Chemistry Modeling Group            !
!------------------------------------------------------------------------------
!BOI
! !TITLE: GEOS-Chem Reference, Volume 4:\\Global Terrestrial Mercury Model
! !AUTHORS: GEOS-Chem Support Team
! !DATE: 15 Jan 2014
!EOI
!------------------------------------------------------------------------------
