#------------------------------------------------------------------------------
#                  GEOS-Chem Global Chemical Transport Model                  #
#------------------------------------------------------------------------------
#BOI
# !TITLE: GEOS-Chem Reference, Volume 1:\\Makefiles
# !AUTHORS: GEOS-Chem Support Team
# !DATE: 25 Feb 2014
#EOI
#------------------------------------------------------------------------------
