!------------------------------------------------------------------------------
!          Harvard University Atmospheric Chemistry Modeling Group            !
!------------------------------------------------------------------------------
!BOI
! !TITLE: The GEOS-Chem Model: Source Code Reference
! !AUTHORS: Bob Yantosca, Philippe Le Sager, and Claire Carouge
! !AFFILIATION: School of Engineering and Applied Sciences, Harvard University
! !DATE: August 27, 2010
!EOI
!------------------------------------------------------------------------------
