#------------------------------------------------------------------------------
#          Harvard University Atmospheric Chemistry Modeling Group            !
#------------------------------------------------------------------------------
#BOI
# !TITLE: The GEOS-Chem Model: Makefile Reference
# !AUTHORS: Bob Yantosca, Claire Carouge, and Philippe Le Sager
# !AFFILIATION: School of Engineering and Applied Sciences, Harvard University
# !DATE: August 27, 2010
#EOI
#------------------------------------------------------------------------------
