!------------------------------------------------------------------------------
!          Harvard University Atmospheric Chemistry Modeling Group            !
!------------------------------------------------------------------------------
!BOI
! !TITLE: GEOS-Chem Reference, Vol. 3: "Core" Modules and Routines
! !AUTHORS: GEOS-Chem Support Team
! !DATE: 24 July 2012
!EOI
!------------------------------------------------------------------------------
