#------------------------------------------------------------------------------
#                  GEOS-Chem Global Chemical Transport Model                  #
#------------------------------------------------------------------------------
#BOI
# !TITLE: GEOS-Chem Reference\\5. Makefiles
# !AUTHORS: GEOS-Chem Support Team
# !DATE: 20 Dec 2016
#EOI
#------------------------------------------------------------------------------
