# $Id: make.intro,v 1.1 2009/09/16 19:20:27 bmy Exp $
#------------------------------------------------------------------------------
#          Harvard University Atmospheric Chemistry Modeling Group            !
#------------------------------------------------------------------------------
#BOI
# !TITLE: The GEOS-Chem Model: Makefile Reference
# !AUTHORS: Bob Yantosca, Philippe Le Sager, and Claire Carouge
# !AFFILIATION: School of Engineering and Applied Sciences, Harvard University
# !DATE: September 16, 2009
#EOI
#------------------------------------------------------------------------------
