!------------------------------------------------------------------------------
!                  GEOS-Chem Global Chemical Transport Model                  !
!------------------------------------------------------------------------------
!BOS
! !SECTION: GEOS-Chem netCDF utilities
! !DESCRIPTION: Here follows a list modules that are used to for I/O to netCDF file format.
!EOS
!------------------------------------------------------------------------------