!------------------------------------------------------------------------------
!                  GEOS-Chem Global Chemical Transport Model                  !
!------------------------------------------------------------------------------
!BOP
! !MODULE: Individual GTMM routines
! !DESCRIPTION: Here follows a list of GTMM routines that do not
!  belong to any F90 module.
!EOP
!------------------------------------------------------------------------------