!------------------------------------------------------------------------------
!          Harvard University Atmospheric Chemistry Modeling Group            !
!------------------------------------------------------------------------------
!BOP
! !MODULE: Individual GEOS-Chem subroutines
! !DESCRIPTION: Here follows a list of GEOS-Chem subroutines which do not
!  belong to any F90 module.
!EOP
!------------------------------------------------------------------------------