!------------------------------------------------------------------------------
!                  GEOS-Chem Global Chemical Transport Model                  !
!------------------------------------------------------------------------------
!BOS
! !SECTION: File utility modules
! !DESCRIPTION: These modules contain routines used for netCDF and binary punch I/O.  (NOTE: In a future version, the binary punch I/O facility will be completely removed).
!EOS
!------------------------------------------------------------------------------