!------------------------------------------------------------------------------
!                  GEOS-Chem Global Chemical Transport Model                  !
!------------------------------------------------------------------------------
!BOS
! !SECTION: Unit conversion utilities
! !DESCRIPTION: These modules contain routines to convert between units.
!EOS
!------------------------------------------------------------------------------