!------------------------------------------------------------------------------
!                  GEOS-Chem Global Chemical Transport Model                  !
!------------------------------------------------------------------------------
!BOS
! !SECTION: Other utility modules
!EOS
!------------------------------------------------------------------------------