  ! Get the GEOS-Chem Cloassic version number from CMake
  CHARACTER(LEN=30) :: GC_CLASSIC_VERSION
  GC_CLASSIC_VERSION = '@PROJECT_VERSION@'
