This is a HEMCO standalone run directory for a 4x5 simulation. For more
information on how to download and run the HEMCO standalone model, see:

  http://wiki.seg.harvard.edu/geos-chem/index.php/HEMCO_standalone

19 May 2017
GEOS-Chem Support Team
geos-chem-support@g.harvard.edu