################################################################################
# gchp.rocky+gnu12.minimal.env
#
# Environment file for GCHP + Rocky Linux + GNU Compiler Collection 12.2.0
#
# Does not include any Spack-built modules, only FASRC-built modules.
# Useful for running in the Cannon queues, or to start fresh Spack builds.
###############################################################################

# Display message (if we are in a terminal window)
if [[ $- = *i* ]] ; then
  echo "Loading modules for GCHP, please wait ..."
fi

#==============================================================================
# Unload all previously-unloaded software
#==============================================================================

# Unload packages loaded with "module load"
module purge

# Unload packages loaded with "spack load"
if [[ "x${SPACK_ROOT}" != "x" ]]; then
    which spack &> /dev/null || spack unload --all
fi

#==============================================================================
# Load FASRC-built software packages for Rocky Linux and GNU 12.2.0
#==============================================================================
if [[ $- = *i* ]] ; then
  echo "... Loading FASRC-built software, please wait ..."
fi

# FASRC-built modules needed for GEOS-Chem
module load gcc/12.2.0-fasrc01             # gcc / g++ / gfortran
module load openmpi/4.1.4-fasrc01          # MPI
module load netcdf-c/4.9.2-fasrc01         # netcdf-c
module load netcdf-fortran/4.6.0-fasrc02   # netcdf-fortran
module load flex/2.6.4-fasrc01             # Flex lexer (needed for KPP)
module load cmake/3.25.2-fasrc01           # CMake (needed to compile)

# Additional FASRC-built modules
# Uncomment if you need to use these
#module load IDL/8.7.2-fasrc01              # IDL language (needed for GAMAP)
#module load R/4.2.2-fasrc01                # R language
#module load matlab/R2022b-fasrc01          # matlab language

#==============================================================================
# Environment variables and related settings
# NOTE: <module>_HOME env vars are defined for each loaded <module>
#==============================================================================

# Make all files world-readable by default
umask 022

# Specify compilers
export CC="gcc"
export CXX="g++"
export FC="gfortran"
export F77="${FC}"

# MPI
export MPI_ROOT="${MPI_HOME}"

# netCDF
if [[ "x${NETCDF_HOME}" == "x" ]]; then
    export NETCDF_HOME="${NETCDF_C_HOME}"
fi
export NETCDF_FORTRAN_ROOT="${NETCDF_FORTRAN_HOME}"

# ESMF
export ESMF_COMPILER="gfortran"
export ESMF_COMM="openmpi"
export ESMF_DIR="/n/jacob_lab/Lab/RockyLinux/ESMF/ESMF_8_4_2"
export ESMF_INSTALL_PREFIX="${ESMF_DIR}/INSTALL_gnu12_openmpi4"
export ESMF_ROOT="${ESMF_INSTALL_PREFIX}"
#----------------------------------------------------------------------------
# ESMF does not build with GCC12 without the following work-around
# for a type mismatch error (https://trac.macports.org/ticket/60954)
export ESMF_F90COMPILEOPTS="-fallow-argument-mismatch -fallow-invalid-boz"
#----------------------------------------------------------------------------

# KPP 3.0.0+
export KPP_FLEX_LIB_DIR="${FLEX_HOME}/lib64"

#==============================================================================
# Set limits
#==============================================================================

ulimit -c unlimited   # coredumpsize
ulimit -u 50000       # maxproc
ulimit -v unlimited   # vmemoryuse
ulimit -s unlimited   # stacksize

#==============================================================================
# Print information
#==============================================================================

module list

echo ""
echo "Environment:"
echo ""
echo "CC                  : ${CC}"
echo "CXX                 : ${CXX}"
echo "FC                  : ${FC}"
echo "ESMF_COMM           : ${ESMF_COMM}"
echo "ESMF_COMPILER       : ${ESMF_COMPILER}"
echo "ESMF_DIR            : ${ESMF_DIR}"
echo "ESMF_INSTALL_PREFIX : ${ESMF_INSTALL_PREFIX}"
echo "ESMF_ROOT           : ${ESMF_ROOT}"
echo "KPP_FLEX_LIB_DIR    : ${KPP_FLEX_LIB_DIR}"
echo "MPI_HOME            : ${MPI_HOME}"
echo "NETCDF_HOME         : ${NETCDF_HOME}"
echo "NETCDF_FORTRAN_HOME : ${NETCDF_FORTRAN_HOME}"
echo ""
echo "Done sourcing ${BASH_SOURCE[0]}"
