Contact:
GEOS-Chem Support Team
Harvard University