Contact:
GEOS-Chem Support Team at Harvard University
geos-chem-support@g.harvard.edu