###############################################################################
###  HISTORY.rc file for GEOS-Chem aerosol-only specialty simulations       ###
###  Contact: GEOS-Chem Support Team (geos-chem-support@g.harvard.edu)      ###
###############################################################################

#============================================================================
# EXPID allows you to specify the beginning of the file path corresponding
# to each diagnostic collection.  For example:
#
#   EXPID: ./GEOSChem 
#      Will create netCDF files whose names begin "GEOSChem",
#      in this run directory.
#
#   EXPID: ./OutputDir/GEOSChem
#      Will create netCDF files whose names begin with "GEOSChem"
#      in the OutputDir sub-folder of this run directory.
#
#============================================================================
EXPID:  ./OutputDir/GEOSChem

#==============================================================================
# %%%%% COLLECTION NAME DECLARATIONS %%%%%
#
# To enable a collection, remove the "#" character in front of its name. The
# Restart collection should always be turned on.
#
# NOTE: These are the "default" collections for GEOS-Chem, but you can create
# your own customized diagnostic collections as well.
#==============================================================================
COLLECTIONS: 'Restart',
             'SpeciesConc',
             #'Budget',
             #'AerosolMass',
             #'Aerosols',
             #'CloudConvFlux',
             #'DryDep',
             #'LevelEdgeDiags',
             #'ProdLoss',
             #'StateChm',     
             #'StateMet',      
             #'WetLossConv',
             #'WetLossLS',
             #'BoundaryConditions',
::
###############################################################################
### The rest of this file consists of collection definitions.               ###
### Above collections whose declarations are commented out will be ignored. ###
### Make sure that each collection definition, as well as the list of       ###
### collections above, ends with a double-colon ("::").                     ###
###############################################################################

#==============================================================================
# %%%%% THE Restart COLLECTION %%%%%
#
# GEOS-Chem restart file fields
#
# Available for all simulations
#==============================================================================
  Restart.filename:           './GEOSChem.Restart.%y4%m2%d2_%h2%n2z.nc4',
  Restart.frequency:          'End',
  Restart.duration:           'End',
  Restart.mode:               'instantaneous'
  Restart.fields:             'SpeciesRst_?ALL?               ',
                              'Chem_H2O2AfterChem             ',
                              'Chem_SO2AfterChem              ',
                              'Chem_DryDepNitrogen            ',
                              'Chem_WetDepNitrogen            ',
                              'Met_DELPDRY                    ',
                              'Met_PS1WET                     ',
                              'Met_PS1DRY                     ',
                              'Met_SPHU1                      ',
                              'Met_TMPU1                      ',
::
#==============================================================================
# %%%%% THE SpeciesConc COLLECTION %%%%%
#
# GEOS-Chem species concentrations (default = advected species)
#
# Available for all simulations
#==============================================================================
  SpeciesConc.template:       '%y4%m2%d2_%h2%n2z.nc4',
  SpeciesConc.frequency:      {FREQUENCY}
  SpeciesConc.duration:       {DURATION}
  SpeciesConc.mode:           'time-averaged'
  SpeciesConc.fields:         'SpeciesConc_?ADV?             ',
::
#==============================================================================
# %%%%% THE Budget COLLECTION %%%%%
#
# GEOS-Chem budget diagnostics defined as species kg/s in the column
# (full, troposphere, or PBL) due to a single component (e.g. chemistry)
# (default = advected species)
#
# Available for all simulations
#==============================================================================
  Budget.template:     '%y4%m2%d2_%h2%n2z.nc4',
  Budget.frequency:    {FREQUENCY}
  Budget.duration:     {DURATION}
  Budget.mode:         'time-averaged'
  Budget.fields:       'BudgetEmisDryDepFull_?ADV?           ',  
                       'BudgetEmisDryDepTrop_?ADV?           ',  
                       'BudgetEmisDryDepPBL_?ADV?            ',  
                       'BudgetChemistryFull_?ADV?            ',
                       'BudgetChemistryTrop_?ADV?            ',
                       'BudgetChemistryPBL_?ADV?             ',  
                       'BudgetTransportFull_?ADV?            ',
                       'BudgetTransportTrop_?ADV?            ',
                       'BudgetTransportPBL_?ADV?             ',  
                       'BudgetMixingFull_?ADV?               ',
                       'BudgetMixingTrop_?ADV?               ',
                       'BudgetMixingPBL_?ADV?                ',    
                       'BudgetConvectionFull_?ADV?           ',
                       'BudgetConvectionTrop_?ADV?           ',
                       'BudgetConvectionPBL_?ADV?            ',  
                       'BudgetWetDepFull_?WET?               ',
                       'BudgetWetDepTrop_?WET?               ',
                       'BudgetWetDepPBL_?WET?                ',  
::
#==============================================================================
# %%%%% THE AerosolMass COLLECTION %%%%%
#
# Aerosol and PM2.5 mass
#
# Available for full-chemistry and aerosol-only simulations
#==============================================================================
  AerosolMass.template:       '%y4%m2%d2_%h2%n2z.nc4',
  AerosolMass.frequency:      {FREQUENCY}
  AerosolMass.duration:       {DURATION}
  AerosolMass.mode:           'time-averaged'
  AerosolMass.fields:         'AerMassBC                    ',
                              'AerMassNH4                   ',
                              'AerMassNIT                   ',
                              'AerMassSAL                   ',
                              'AerMassSO4                   ',
                              'PM25                         ',
                              'TotalOA                      ',
                              'TotalOC                      ',
::
#==============================================================================
# %%%%% The Aerosols COLLECTION %%%%%
#
# Aerosol optical depth, surface area, number density, and hygroscopic growth
#
# Available for full-chemistry or aerosol-only simulations
#==============================================================================
  Aerosols.template:          '%y4%m2%d2_%h2%n2z.nc4',
  Aerosols.frequency:         {FREQUENCY}
  Aerosols.duration:          {DURATION}
  Aerosols.mode:              'time-averaged'
  Aerosols.fields:            'AODDust                       ',
                              'AODDustWL1_?DUSTBIN?          ',
                              'AODHygWL1_?HYG?               ',
                              'AODSOAfromAqIsopreneWL1       ',
                              'AODStratLiquidAerWL1          ',
                              'AODPolarStratCloudWL1         ',
                              'AerHygroscopicGrowth_?HYG?    ',
                              'AerNumDensityStratLiquid      ',
                              'AerNumDensityStratParticulate ',
                              'AerAqueousVolume              ',
                              'AerSurfAreaDust               ',
                              'AerSurfAreaHyg_?HYG?          ',
                              'AerSurfAreaStratLiquid        ',
                              'AerSurfAreaPolarStratCloud    ',
                              'Chem_AeroAreaMDUST1           ',
                              'Chem_AeroAreaMDUST2           ',
                              'Chem_AeroAreaMDUST3'          ',
                              'Chem_AeroAreaMDUST4           ',
                              'Chem_AeroAreaMDUST5           ',
                              'Chem_AeroAreaMDUST6           ',
                              'Chem_AeroAreaMDUST7           ',
                              'Chem_AeroAreaSULF             ',
                              'Chem_AeroAreaBC               ',
                              'Chem_AeroAreaOC               ',
                              'Chem_AeroAreaSSA              ',
                              'Chem_AeroAreaSSC              ',
                              'Chem_AeroRadiMDUST1           ',
                              'Chem_AeroRadiMDUST2           ',
                              'Chem_AeroRadiMDUST3           ',
                              'Chem_AeroRadiMDUST4           ',
                              'Chem_AeroRadiMDUST5           ',
                              'Chem_AeroRadiMDUST6           ',
                              'Chem_AeroRadiMDUST7           ',
                              'Chem_AeroRadiSULF             ',
                              'Chem_AeroRadiBC               ',
                              'Chem_AeroRadiOC               ',
                              'Chem_AeroRadiSSA              ',
                              'Chem_AeroRadiSSC              ',
                              'Chem_WetAeroAreaMDUST1        ',
                              'Chem_WetAeroAreaMDUST2        ',
                              'Chem_WetAeroAreaMDUST3        ',
                              'Chem_WetAeroAreaMDUST4        ',
                              'Chem_WetAeroAreaMDUST5        ',
                              'Chem_WetAeroAreaMDUST6        ',
                              'Chem_WetAeroAreaMDUST7        ',
                              'Chem_WetAeroAreaSULF          ',
                              'Chem_WetAeroAreaBC            ',
                              'Chem_WetAeroAreaOC            ',
                              'Chem_WetAeroAreaSSA           ',
                              'Chem_WetAeroAreaSSC           ',
                              'Chem_WetAeroRadiMDUST1        ',
                              'Chem_WetAeroRadiMDUST2        ',
                              'Chem_WetAeroRadiMDUST3        ',
                              'Chem_WetAeroRadiMDUST4        ',
                              'Chem_WetAeroRadiMDUST5        ',
                              'Chem_WetAeroRadiMDUST6        ',
                              'Chem_WetAeroRadiMDUST7        ',
                              'Chem_WetAeroRadiSULF          ',
                              'Chem_WetAeroRadiBC            ',
                              'Chem_WetAeroRadiOC            ',
                              'Chem_WetAeroRadiSSA           ',
                              'Chem_WetAeroRadiSSC           ',
::
#==============================================================================
# %%%%% THE CloudConvFlux COLLECTION %%%%%
#
# Cloud convective flux (default = advected species)
#
# Available for all simulations
#==============================================================================
  CloudConvFlux.template:     '%y4%m2%d2_%h2%n2z.nc4',
  CloudConvFlux.frequency:    {FREQUENCY}
  CloudConvFlux.duration:     {DURATION}
  CloudConvFlux.mode:         'time-averaged'
  CloudConvFlux.fields:       'CloudConvFlux_?ADV?           ',
::
#==============================================================================
# %%%%% THE DryDep COLLECTION %%%%%
#
# Dry depositon fluxes and velocities (for all dry-depositing species)
#
# Available for all simuations that have dry-depositing species
#==============================================================================
  DryDep.template:            '%y4%m2%d2_%h2%n2z.nc4',
  DryDep.frequency:           {FREQUENCY}
  DryDep.duration:            {DURATION}
  DryDep.mode:                'time-averaged'
  DryDep.fields:              'DryDepVel_?DRY?               ',
                              'DryDep_?DRY?                  ',
                              #'DryDepChm_?DRY?              ',
                              #'DryDepMix_?DRY?              ',
::
#==============================================================================
# %%%%% THE LevelEdgeDiags COLLECTION %%%%%
#
# Diagnostics that are defined on grid box level edges
#
# Available for all simulations
#==============================================================================
  LevelEdgeDiags.template:    '%y4%m2%d2_%h2%n2z.nc4',
  LevelEdgeDiags.frequency:   {FREQUENCY}
  LevelEdgeDiags.duration:    {DURATION}
  LevelEdgeDiags.mode:        'time-averaged'
  LevelEdgeDiags.fields:      'Met_CMFMC                     ',
                              'Met_PEDGE                     ',
                              'Met_PEDGEDRY                  ',
                              'Met_PFICU                     ',
                              'Met_PFILSAN                   ',
                              'Met_PFLCU                     ',
                              'Met_PFLLSAN                   ',
::
#==============================================================================
# %%%%% THE ProdLoss COLLECTION %%%%%
#
# Chemical production and loss rates
#
# Available for full-chemistry, aerosol-only, tagO3, and tagCO simulations
#==============================================================================
  ProdLoss.template:          '%y4%m2%d2_%h2%n2z.nc4',
  ProdLoss.frequency:         {FREQUENCY}
  ProdLoss.duration:          {DURATION}
  ProdLoss.mode:              'time-averaged'
  ProdLoss.fields:            'ProdBCPIfromBCPO              ', 
                              'ProdOCPIfromOCPO              ',
			      'ProdSO2fromDMSandOH           ',
			      'ProdSO2fromDMSandNO3          ',
			      'ProdSO2fromDMS                ',
			      'ProdMSAfromDMS                ',
			      'ProdSO4fromGasPhase           ',
                              'ProdSO4fromH2O2inCloud        ',
#                             'ProdSO4fromO2inCloudMetal     ',
                              'ProdSO4fromO3inCloud          ',
                              'ProdSO4fromO3inSeaSalt        ',
                              'ProdSO4fromSRO3               ',
                              'ProdSO4fromO3s                ',
                              'LossHNO3onSeaSalt             ',
::
#==============================================================================
# %%%%% THE StateChm COLLECTION %%%%%
#
# Fields of the State_Chm object (see also Aerosols collection)
#
# Available for full-chemistry and aerosols-only simulations
#==============================================================================
  StateChm.template:          '%y4%m2%d2_%h2%n2z.nc4',
  StateChm.frequency:         {FREQUENCY}
  StateChm.duration:          {DURATION}
  StateChm.mode:              'time-averaged'
  StateChm.fields:            'Chem_IsorropAeropHAccum       ',
                              'Chem_IsorropAeropHCoarse      ',
                              'Chem_IsorropHplusAccum        ',
                              'Chem_IsorropHplusCoarse       ',
                              'Chem_IsorropAeroH2OAccum      ',
                              'Chem_IsorropAeroH2OCoarse     ',
                              'Chem_IsorropSulfate           ',
                              'Chem_IsorropNitrateAccum      ',
                              'Chem_IsorropNitrateCoarse     ',
                              'Chem_IsorropChlorideAccum     ',
                              'Chem_IsorropChlorideCoarse    ',
                              'Chem_IsorropBisulfate         ',
                              'Chem_pHCloud                  ',
                              'Chem_isCloud                  ',
                              'Chem_SSAlkAccumMode           ',
                              'Chem_SSAlkCoarseMode          ',
                              'Chem_HSO3AQ                   ',
                              'Chem_SO3AQ                    ',
                              'Chem_fupdateHOBr              ',
                              'Chem_GammaN2O5overall         ',
                              'Chem_GammaN2O5fine            ',
                              'Chem_YieldClNO2fine           ',
::
#==============================================================================
# %%%%% The StateMet COLLECTION %%%%%
#
# Fields of the State_Met object (also see the LevelEdgeDiags collection)
#
# Available for all simulations
#==============================================================================
  StateMet.template:          '%y4%m2%d2_%h2%n2z.nc4',
  StateMet.frequency:         {FREQUENCY}
  StateMet.duration:          {DURATION}
  StateMet.mode:              'time-averaged'
  StateMet.fields:            'Met_AD                        ',
                              'Met_AIRDEN                    ',
                              'Met_AIRVOL                    ',
                              'Met_ALBD                      ',
                              'Met_AVGW                      ',
                              'Met_BXHEIGHT                  ',
                              'Met_ChemGridLev               ',
                              'Met_CLDF                      ',
                              'Met_CLDFRC                    ',
                              'Met_CLDTOPS                   ',
                              'Met_DELP                      ',
                              'Met_DQRCU                     ',
                              'Met_DQRLSAN                   ',
                              'Met_DTRAIN                    ',
                              'Met_EFLUX                     ',
                              'Met_FRCLND                    ',
                              'Met_FRLAKE                    ',
                              'Met_FRLAND                    ',
                              'Met_FRLANDIC                  ',
                              'Met_FROCEAN                   ',
                              'Met_FRSEAICE                  ',
                              'Met_FRSNO                     ',
                              'Met_GWETROOT                  ',
                              'Met_GWETTOP                   ',
                              'Met_HFLUX                     ',
                              'Met_LAI                       ',
                              'Met_LWI                       ',
                              'Met_PARDR                     ',
                              'Met_PARDF                     ',
                              'Met_PBLTOPL                   ',
                              'Met_PBLH                      ',
                              'Met_PHIS                      ',
                              'Met_PMID                      ',
                              'Met_PMIDDRY                   ',
                              'Met_PRECANV                   ',
                              'Met_PRECCON                   ',
                              'Met_PRECLSC                   ',
                              'Met_PRECTOT                   ',
                              'Met_PS1DRY                    ',
                              'Met_PS1WET                    ',
                              'Met_PS2DRY                    ',
                              'Met_PS2WET                    ',
                              'Met_PSC2WET                   ',
                              'Met_PSC2DRY                   ',
                              'Met_QI                        ',
                              'Met_QL                        ',
                              'Met_OMEGA                     ',
                              'Met_OPTD                      ',
                              'Met_REEVAPCN                  ',
                              'Met_REEVAPLS                  ',
                              'Met_SLP                       ',
                              'Met_SNODP                     ',
                              'Met_SNOMAS                    ',
                              'Met_SPHU                      ',
                              'Met_SPHU1                     ',
                              'Met_SPHU2                     ',
                              'Met_SUNCOS                    ',
                              'Met_SUNCOSmid                 ',
                              'Met_SWGDN                     ',
                              'Met_T                         ',
                              'Met_TAUCLI                    ',
                              'Met_TAUCLW                    ',
                              'Met_THETA                     ',
                              'Met_TMPU1                     ',
                              'Met_TMPU2                     ',
                              'Met_TO3                       ',
                              'Met_TropHt                    ',
                              'Met_TropLev                   ',
                              'Met_TropP                     ',
                              'Met_TS                        ',
                              'Met_TSKIN                     ',
                              'Met_TV                        ',
                              'Met_U                         ',
                              'Met_U10M                      ',
                              'Met_USTAR                     ',
                              'Met_UVALBEDO                  ',
                              'Met_V                         ',
                              'Met_V10M                      ',
                              'Met_Z0                        ',
::
#==============================================================================
# %%%%% THE WetLossConv COLLECTION %%%%%
#
# Loss of soluble species in convective updrafts
#
# Available for all simulations that have soluble species
#==============================================================================
  WetLossConv.template:       '%y4%m2%d2_%h2%n2z.nc4',
  WetLossConv.frequency:      {FREQUENCY}
  WetLossConv.duration:       {DURATION}
  WetLossConv.mode:           'time-averaged'
  WetLossConv.fields:         'WetLossConv_?WET?             ',
                              'WetLossConvFrac_?WET?         ',
::
#==============================================================================
# %%%%% THE WetLossLS COLLECTION %%%%%
#
# Loss of soluble species in large-scale wetdep (i.e. rainout and washout)
#
# Available for all simulations that have soluble species
#==============================================================================
# Loss due to rainout and washout (per deposited species)
  WetLossLS.template:         '%y4%m2%d2_%h2%n2z.nc4',
  WetLossLS.frequency:        {FREQUENCY}
  WetLossLS.duration:         {DURATION}
  WetLossLS.mode:             'time-averaged'
  WetLossLS.fields:           'WetLossLS_?WET?               ',
::
#==============================================================================
# %%%%% THE BoundaryConditions COLLECTION %%%%%
#
# GEOS-Chem boundary conditions for use in nested grid simulations
#
# Available for all simulations
#==============================================================================
  BoundaryConditions.template:   '%y4%m2%d2_%h2%n2z.nc4',
  BoundaryConditions.frequency:  00000000 030000
  BoundaryConditions.duration:   00000001 000000
  BoundaryConditions.mode:       'instantaneous'
  BoundaryConditions.fields:     'SpeciesBC_?ADV?             ',
::