###############################################################################
###  HISTORY.rc file for GEOS-Chem CO2 specialty simulations                ###
###  Contact: GEOS-Chem Support Team (geos-chem-support@g.harvard.edu)      ###
###############################################################################

#============================================================================
# EXPID allows you to specify the beginning of the file path corresponding
# to each diagnostic collection.  For example:
#
#   EXPID: ./GEOSChem
#      Will create netCDF files whose names begin "GEOSChem",
#      in this run directory.
#
#   EXPID: ./OutputDir/GEOSChem
#      Will create netCDF files whose names begin with "GEOSChem"
#      in the OutputDir sub-folder of this run directory.
#
#============================================================================
EXPID:  ./OutputDir/GEOSChem

#==============================================================================
# %%%%% COLLECTION NAME DECLARATIONS %%%%%
#
# To enable a collection, remove the "#" character in front of its name. The
# Restart collection should always be turned on.
#
# NOTE: These are the "default" collections for GEOS-Chem, but you can create
# your own customized diagnostic collections as well.
#==============================================================================
COLLECTIONS: 'Restart',
             'CO2,
             'SpeciesConc',
             #'Budget',
             #'CloudConvFlux',
             #'LevelEdgeDiags',
             #'SatDiagn',
             #'StateMet',
             #'BoundaryConditions',
::
###############################################################################
### The rest of this file consists of collection definitions.               ###
### Above collections whose declarations are commented out will be ignored. ###
### Make sure that each collection definition, as well as the list of       ###
### collections above, ends with a double-colon ("::").                     ###
###############################################################################

#==============================================================================
# %%%%% THE Restart COLLECTION %%%%%
#
# GEOS-Chem restart file fields
#
# Available for all simulations
#==============================================================================
  Restart.filename:           './Restarts/GEOSChem.Restart.%y4%m2%d2_%h2%n2z.nc4',
  Restart.frequency:          'End',
  Restart.duration:           'End',
  Restart.mode:               'instantaneous'
  Restart.fields:             'SpeciesRst_?ALL?               ',
                              'Met_DELPDRY                    ',
                              'Met_BXHEIGHT                   ',
                              'Met_TropLev                    ',
::
#==============================================================================
# %%%%% THE SpeciesConc COLLECTION %%%%%
#
# GEOS-Chem species concentrations (default = all species)
#
# Available for all simulations
#
# Concentrations may be saved out as SpeciesConcVV  [v/v dry air] or
#                                    SpeciesConcMND [molec/cm3]
#==============================================================================
  SpeciesConc.template:       '%y4%m2%d2_%h2%n2z.nc4',
  SpeciesConc.frequency:      ${RUNDIR_HIST_TIME_AVG_FREQ}
  SpeciesConc.duration:       ${RUNDIR_HIST_TIME_AVG_DUR}
  SpeciesConc.mode:           'time-averaged'
  SpeciesConc.fields:         'SpeciesConcVV_?ADV?            ',
                              #'SpeciesConcMND_?ADV?          ',
::
#==============================================================================
# %%%%% THE Budget COLLECTION %%%%%
#
# GEOS-Chem budget diagnostics defined as species kg/s in the column
# (full, troposphere, or PBL) due to a single component (e.g. chemistry)
# (default = advected species)
#
# Available for all simulations
#==============================================================================
  Budget.template:     '%y4%m2%d2_%h2%n2z.nc4',
  Budget.frequency:    ${RUNDIR_HIST_TIME_AVG_FREQ}
  Budget.duration:     ${RUNDIR_HIST_TIME_AVG_DUR}
  Budget.mode:         'time-averaged'
  Budget.fields:       'BudgetEmisDryDepFull_?ADV?           ',
                       'BudgetEmisDryDepTrop_?ADV?           ',
                       'BudgetEmisDryDepPBL_?ADV?            ',
                       'BudgetChemistryFull_?ADV?            ',
                       'BudgetChemistryTrop_?ADV?            ',
                       'BudgetChemistryPBL_?ADV?             ',
                       'BudgetTransportFull_?ADV?            ',
                       'BudgetTransportTrop_?ADV?            ',
                       'BudgetTransportPBL_?ADV?             ',
                       'BudgetMixingFull_?ADV?               ',
                       'BudgetMixingTrop_?ADV?               ',
                       'BudgetMixingPBL_?ADV?                ',
                       'BudgetConvectionFull_?ADV?           ',
                       'BudgetConvectionTrop_?ADV?           ',
                       'BudgetConvectionPBL_?ADV?            ',
                       'BudgetWetDepFull_?WET?               ',
                       'BudgetWetDepTrop_?WET?               ',
                       'BudgetWetDepPBL_?WET?                ',
::
#==============================================================================
# %%%%% THE CO2 COLLECTION %%%%%
#
# Diagnostics for the CO2 specialty simulation.  (NOTE: Several other relevant
# CO2 specialty-simulation diagnostics are sent to the HEMCO diagnostics.)
#
# Only available for the CO2 specialty simulation only
#==============================================================================
  CO2.template:        '%y4%m2%d2_%h2%n2z.nc4',
  CO2.frequency:       ${RUNDIR_HIST_TIME_AVG_FREQ}
  CO2.duration:        ${RUNDIR_HIST_TIME_AVG_DUR}
  CO2.mode:            'time-averaged'
  CO2.fields:          'ProdCO2fromCO                        ',
::
#==============================================================================
# %%%%% THE CloudConvFlux COLLECTION %%%%%
#
# Cloud convective flux (default = advected species)
#
# Available for all simulations
#==============================================================================
  CloudConvFlux.template:     '%y4%m2%d2_%h2%n2z.nc4',
  CloudConvFlux.frequency:    ${RUNDIR_HIST_TIME_AVG_FREQ}
  CloudConvFlux.duration:     ${RUNDIR_HIST_TIME_AVG_DUR}
  CloudConvFlux.mode:         'time-averaged'
  CloudConvFlux.fields:       'CloudConvFlux_?ADV?           ',
::
#==============================================================================
# %%%%% THE LevelEdgeDiags COLLECTION %%%%%
#
# Diagnostics that are defined on grid box level edges
#
# Available for all simulations
#==============================================================================
  LevelEdgeDiags.template:    '%y4%m2%d2_%h2%n2z.nc4',
  LevelEdgeDiags.frequency:   ${RUNDIR_HIST_TIME_AVG_FREQ}
  LevelEdgeDiags.duration:    ${RUNDIR_HIST_TIME_AVG_DUR}
  LevelEdgeDiags.mode:        'time-averaged'
  LevelEdgeDiags.fields:      'Met_CMFMC                     ',
                              'Met_PEDGE                     ',
                              'Met_PEDGEDRY                  ',
                              'Met_PFICU                     ',
                              'Met_PFILSAN                   ',
                              'Met_PFLCU                     ',
                              'Met_PFLLSAN                   ',
::
#==============================================================================
# %%%%% THE SatDiagn COLLECTION %%%%%
#
# GEOS-Chem data during satellite overpass
#
# Available for all simulations
#==============================================================================
  SatDiagn.template:          '%y4%m2%d2_%h2%n2z.nc4',
  SatDiagn.format:            'CFIO',
  SatDiagn.frequency:         00000001 000000
  SatDiagn.duration:          00000100 000000
  SatDiagn.hrrange:           11.98 15.02
  SatDiagn.mode:              'time-averaged'
  SatDiagn.fields:            'SatDiagnConc_CO2               ',
                              'SatDiagnAirDen                 ',
                              'SatDiagnBoxHeight              ',
                              'SatDiagnPEdge                  ',
                              'SatDiagnTROPP                  ',
                              'SatDiagnPBLHeight              ',
                              'SatDiagnPBLTop                 ',
                              'SatDiagnTAir                   ',
                              'SatDiagnGWETROOT               ',
                              'SatDiagnGWETTOP                ',
                              'SatDiagnPARDR                  ',
                              'SatDiagnPARDF                  ',
                              'SatDiagnPRECTOT                ',
                              'SatDiagnSLP                    ',
                              'SatDiagnSPHU                   ',
                              'SatDiagnTS                     ',
                              'SatDiagnPBLTOPL                ',
                              'SatDiagnMODISLAI               ',
                              'SatDiagnColEmis_CO2            ',
                              'SatDiagnSurfFlux_CO2           ',
::
#==============================================================================
# %%%%% The StateMet COLLECTION %%%%%
#
# Fields of the State_Met object (also see the LevelEdgeDiags collection)
#
# Available for all simulations
#==============================================================================
  StateMet.template:          '%y4%m2%d2_%h2%n2z.nc4',
  StateMet.frequency:         ${RUNDIR_HIST_TIME_AVG_FREQ}
  StateMet.duration:          ${RUNDIR_HIST_TIME_AVG_DUR}
  StateMet.mode:              'time-averaged'
  StateMet.fields:            'Met_AD                        ',
                              'Met_AIRDEN                    ',
                              'Met_AIRVOL                    ',
                              'Met_ALBD                      ',
                              'Met_AVGW                      ',
                              'Met_BXHEIGHT                  ',
                              'Met_ChemGridLev               ',
                              'Met_CLDF                      ',
                              'Met_CLDFRC                    ',
                              'Met_CLDTOPS                   ',
                              'Met_DELP                      ',
                              'Met_DQRCU                     ',
                              'Met_DQRLSAN                   ',
                              'Met_DTRAIN                    ',
                              'Met_EFLUX                     ',
                              'Met_FRCLND                    ',
                              'Met_FRLAKE                    ',
                              'Met_FRLAND                    ',
                              'Met_FRLANDIC                  ',
                              'Met_FROCEAN                   ',
                              'Met_FRSEAICE                  ',
                              'Met_FRSNO                     ',
                              'Met_GWETROOT                  ',
                              'Met_GWETTOP                   ',
                              'Met_HFLUX                     ',
                              'Met_LAI                       ',
                              'Met_PARDR                     ',
                              'Met_PARDF                     ',
                              'Met_PBLTOPL                   ',
                              'Met_PBLH                      ',
                              'Met_PHIS                      ',
                              'Met_PMID                      ',
                              'Met_PMIDDRY                   ',
                              'Met_PRECANV                   ',
                              'Met_PRECCON                   ',
                              'Met_PRECLSC                   ',
                              'Met_PRECTOT                   ',
                              'Met_PS1DRY                    ',
                              'Met_PS1WET                    ',
                              'Met_PS2DRY                    ',
                              'Met_PS2WET                    ',
                              'Met_PSC2WET                   ',
                              'Met_PSC2DRY                   ',
                              'Met_QI                        ',
                              'Met_QL                        ',
                              'Met_OMEGA                     ',
                              'Met_OPTD                      ',
                              'Met_REEVAPCN                  ',
                              'Met_REEVAPLS                  ',
                              'Met_SLP                       ',
                              'Met_SNODP                     ',
                              'Met_SNOMAS                    ',
                              'Met_SPHU                      ',
                              'Met_SPHU1                     ',
                              'Met_SPHU2                     ',
                              'Met_SUNCOS                    ',
                              'Met_SUNCOSmid                 ',
                              'Met_SWGDN                     ',
                              'Met_T                         ',
                              'Met_TAUCLI                    ',
                              'Met_TAUCLW                    ',
                              'Met_THETA                     ',
                              'Met_TMPU1                     ',
                              'Met_TMPU2                     ',
                              'Met_TO3                       ',
                              'Met_TropHt                    ',
                              'Met_TropLev                   ',
                              'Met_TropP                     ',
                              'Met_TS                        ',
                              'Met_TSKIN                     ',
                              'Met_TV                        ',
                              'Met_U                         ',
                              'Met_U10M                      ',
                              'Met_USTAR                     ',
                              'Met_UVALBEDO                  ',
                              'Met_V                         ',
                              'Met_V10M                      ',
                              'Met_Z0                        ',
::
#==============================================================================
# %%%%% THE BoundaryConditions COLLECTION %%%%%
#
# GEOS-Chem boundary conditions for use in nested grid simulations
#
# Available for all simulations
#==============================================================================
  BoundaryConditions.template:   '%y4%m2%d2_%h2%n2z.nc4',
  BoundaryConditions.frequency:  00000000 030000
  BoundaryConditions.duration:   00000001 000000
  BoundaryConditions.mode:       'instantaneous'
  BoundaryConditions.fields:     'SpeciesBC_?ADV?             ',
::