#------------------------------------------------------------------------------
#                  GEOS-Chem Global Chemical Transport Model                  #
#------------------------------------------------------------------------------
#BOP
#
# !MODULE: Makefile (in the ObsPack subdirectory)
#
# !DESCRIPTION: This makefile compiles the various GEOS-Chem History modules,
#  which contain many PARAMETERs and global arrays for GEOS-Chem routines.
#
# !REMARKS:
# To build the programs, call "make" with the following syntax:
#                                                                             .
#   make -jN TARGET REQUIRED-FLAGS [ OPTIONAL-FLAGS ]
#                                                                             .
# To display a complete list of options, type "make help".
#                                                                             .
# %%%%%%%%%%%%%%%%%%%%%%%%%%%%%%%%%%%%%%%%%%%%%%%%%%%%%%%%%%%%%%%%%%%%%%%%%%%%
# %%% NOTE: Normally you will not have to call this Makefile directly,     %%%
# %%% it will be called automatically from the Makefile in the directory   %%%
# %%% just above this one!                                                 %%%
# %%%%%%%%%%%%%%%%%%%%%%%%%%%%%%%%%%%%%%%%%%%%%%%%%%%%%%%%%%%%%%%%%%%%%%%%%%%%
#                                                                             .
# Makefile uses the following variables:
#                                                                             .
# Variable   Description
# --------   -----------
# SHELL      Specifies the shell for "make" to use (usually SHELL=/bin/sh)
# ROOTDIR    Specifies the root-level directory of the GEOS-Chem code
# HDR        Specifies the directory where GEOS-Chem include files are found
# LIB        Specifies the directory where library files (*.a) are stored
# MOD        Specifies the directory where module files (*.mod) are stored
# AR         Sys var w/ name of library creator program (i.e., "ar", "ranlib")
# MAKE       Sys var w/ name of Make command (i.e, "make" or "gmake")
#
# !REVISION HISTORY:
#  05 Dec 2018 - R. Yantosca - Initial version
#EOP
#------------------------------------------------------------------------------
#BOC

###############################################################################
###                                                                         ###
###  Initialization section                                                 ###
###                                                                         ###
###############################################################################

# Define variables
ROOT      :=..
HELP      :=$(ROOT)/help
LIB       :=$(ROOT)/lib
MOD       :=$(ROOT)/mod

# Include header file.  This returns CC, F90, FREEFORM, LD, R8, SHELL,
# as well as the default Makefile compilation rules for source code files.
include $(ROOT)/Makefile_header.mk

# List of source files: everything ending in .F and .F90
SOURCES   :=$(wildcard *.F) $(wildcard *.F90)

# Replace .F and .F90 extensions with *.o
TMP       :=$(SOURCES:.F=.o)
OBJECTS   :=$(TMP:.F90=.o)

# List of module files.  Convert to lowercase, then prefix directory name.
MODULES  :=$(OBJECTS:.o=.mod)
MODULES  :=$(shell echo $(MODULES) | tr A-Z a-z)
MODULES  :=$(foreach I,$(MODULES),$(MOD)/$(I))

# Library file
LIBRARY  :=libObsPack.a

###############################################################################
###                                                                         ###
###  Makefile targets: type "make help" for a complete listing!             ###
###                                                                         ###
###############################################################################

.PHONY: clean debug slowclean

all: lib

lib: $(OBJECTS)
	$(AR) crs $(LIBRARY) $(OBJECTS)
	mv $(LIBRARY) $(LIB)

clean:
	@echo "===> Making clean in directory: History <==="
	@rm -f *.o *.mod *.a *.x

slowclean:
	@echo "===> Making slowclean in directory: History <==="
	@rm -f $(OBJECTS) $(MODULES) $(LIBRARY) $(LIB)/$(LIBRARY)

debug:
	@echo "Targets : $(MAKECMDGOALS)"
	@echo "ROOT    : $(ROOT)"
	@echo "LIB     : $(LIB)"
	@echo "MOD     : $(MOD)"
	@echo "F90     : $(F90)"
	@echo "OBJECTS : $(OBJECTS)"
	@echo "MODULES : $(MODULES)"
	@echo "LIBRARY : $(LIBRARY)"

###############################################################################
###                                                                         ###
###  Dependencies listing                                                   ###
###  (grep "USE " to get the list of module references!)                    ###
###                                                                         ###
###  From this list of dependencies, the "make" utility will figure out     ###
###  correct order of compilation (so we don't have to do that ourselves).  ###
###  This also allows us to compile on multiple processors with "make -j".  ###
###                                                                         ###
###  NOTES:                                                                 ###
###  (1) Only specify object-file dependencies that are within this         ###
###       directory.  Object files in other directories will be referenced  ###
###       at link-time.                                                     ###
###  (2) For "make -jN" (i.e. compile N files simultaneously), all files    ###
###       in this directory must have a listed dependency.                  ###
###                                                                         ###
###############################################################################

obspack_mod.o : obspack_mod.F90

#EOC
