
# Environment file to load before building and running GCHP on the MSU Orion cluster
# - Lizzie Lundgren, GEOS-Chem Support Team, 29Jan2025

module purge

# This set of libraries avoids a run-time error in MAPL
# https://github.com/GEOS-ESM/MAPL/issues/1933
module load intel-oneapi-compilers/2024.1.0
module load intel-oneapi-mpi/2021.12.0
module load hdf5/1.12.2 # or 1.14.3
module load netcdf-c/4.9.0
module load netcdf-fortran/4.6.0

# Other library combinations available on Orion
# These combinations run into the run-time error referenced above

#module load intel-oneapi-compilers/2022.0.2
#module load intel-oneapi-mpi/2021.5.1
#module load hdf5/1.14.1-2
#module load netcdf-c/4.7.4
#module load netcdf-fortran/4.5.3

#module load intel-oneapi-compilers/2023.1.0
#module load intel-oneapi-mpi/2021.9.0
#module load hdf5/1.14.1-2
#module load netcdf-c/4.9.2
#module load netcdf-fortran/4.6.0

#module load intel-oneapi-compilers/2023.2.4
#module load intel-oneapi-mpi/2021.13.0
#module load hdf5/1.14.3
#module load netcdf-c/4.9.2
#module load netcdf-fortran/4.6.1

export CC=icx
export CXX=icx
export FC=ifort
export F77=${FC}
if [[ "x${NETCDF_HOME}" == "x" ]]; then
   export NETCDF_HOME="${NETCDF_C_HOME}"
fi
export NETCDF_C_ROOT="${NETCDF_HOME}"
export NETCDF_FORTRAN_ROOT="${NETCDF_FORTRAN_HOME}"

export MPI_ROOT=${MPI_HOME}
export ESMF_COMPILER=intel
export ESMF_COMM=intelmpi
export ESMF_DIR=/work/noaa/co2/ewlundgr/ESMF/ESMF
# The ESMF install is for a different intel version but works for now
export ESMF_INSTALL_PREFIX=${ESMF_DIR}/INSTALL_intel2022_intelmpi2021.9.0
export ESMF_ROOT=${ESMF_INSTALL_PREFIX}

ulimit -c unlimited   # coredumpsize
ulimit -u 50000       # maxproc
ulimit -v unlimited   # vmemoryuse
ulimit -s unlimited   # stacksize

# Other potentially useful modules for analyses and code development
# Library versions may need to be changed based on libraries already loaded
#module load intel-oneapi-mkl/2022.2.1
#module load hdf4/4.2.16
#module load r/4.2.2
#module load nco/5.0.1
#module load udunits/2.2.28
#module load zlib/1.2.13
#module load nco/5.0.1
#module load libszip/2.1.1
#module load ffmpeg/4.4.1
#module load ncl/6.6.2
#module load gdal/3.5.3
#module load gmt/6.2.0
#module load ghostscript/9.56.1
#module load imagemagick/7.0.8-7
#module load contrib noaatools
#module load python/3.10.8
#module load ncview
#module load contrib noaatools
#ml contrib noaatools/1.0
#module load git/2.28.0
#module load gsl/2.6

