EXPID:  OutputDir/GCHP
EXPDSC: GEOS-Chem_devel
CoresPerNode: 6
VERSION: 1

#==============================================================================
# Define output grids different from the native cubed sphere in this section.
# Each diagnostics collection will be output on the native resolution cubed
# sphere grid unless a different grid is configured. A few examples are
# provided below.
#
# To use a grid for a specific collection, include the 'grid_label' field
# in the collection definition. For example, 
#
#   SpeciesConc.grid_label:   REGIONAL1x1
#
# If you are outputting on a lat/lon grid, be sure to specify conservative
# regridding. Otherwise regridding will be bi-linear.
#
#   SpeciesConc.conservative: 1
#
#==============================================================================
GRID_LABELS: PE24x144-CF
             PC360x181-DC
             REGIONAL1x1
    ::

    # Example of cubed-sphere grid at c24 resolution
    PE24x144-CF.GRID_TYPE: Cubed-Sphere
    PE24x144-CF.IM_WORLD: 24
    PE24x144-CF.JM_WORLD: 144
    PE24x144-CF.LM: 72

    # Example of lat-lon global grid at 1x1 resolution
    PC360x181-DC.GRID_TYPE: LatLon
    PC360x181-DC.IM_WORLD: 360
    PC360x181-DC.JM_WORLD: 181
    PC360x181-DC.POLE: PC
    PC360x181-DC.DATELINE: DC
    PC360x181-DC.LM: 72

    # Example of lat-lon regional grid at 1x1 resolution
    REGIONAL1x1.GRID_TYPE: LatLon
    REGIONAL1x1.IM_WORLD: 80
    REGIONAL1x1.JM_WORLD: 40
    REGIONAL1x1.POLE: XY
    REGIONAL1x1.DATELINE: XY
    REGIONAL1x1.LON_RANGE:   0 80
    REGIONAL1x1.LAT_RANGE: -30 10
    REGIONAL1x1.LM: 72

#==============================================================================
# %%%%% COLLECTION NAME DECLARATIONS %%%%%
#
# To enable a collection, remove the "#" character in front of its name. The
# Restart collection should always be turned on.
#
# NOTE: These are the "default" collections for GEOS-Chem, but you can create
# your own customized diagnostic collections as well.
#==============================================================================
COLLECTIONS: #'AerosolMass',
             #'Aerosols',
             #'Budget',
             #'CloudConvFlux',
             #'ConcAboveSfc',
             #'ConcAfterChem',
             #'DryDep',
             'Emissions',
             #'JValues',
             #'LevelEdgeDiags',      
             #'ProdLoss',
             'SpeciesConc',
             #'StateChm',
             'StateMet_avg',  
             'StateMet_inst',  
             #'WetLossConv',
             #'WetLossLS',
::
#==============================================================================
# Define collections
# The rest of this file consists of collection definitions.
# Above collections whose declarations are commented out will be ignored.
# You can skip individual diagnostics by commenting them out.
#
# WARNING: Frequency, duration, and mode will be over-written with
# settings in runConfig.sh. Edit those settings there. Add collections
# as needed to that file as needed or edit in place new collections here.
#
# NOTES:
#    (1) See the GRID_LABELS sections above for details about output grids
#    (2) To output a reduced set of levels, use the levels keyword, e.g.:
#           SpeciesConc.levels: 1 2 3
#
#==============================================================================
# Emissions (see HEMCO_Diagn.rc for additional config settings)
  Emissions.template:         '%y4%m2%d2_%h2%n2z.nc4',
  Emissions.format:           'CFIO',
  Emissions.frequency:        010000
  Emissions.duration:         010000
  Emissions.mode:             'time-averaged'
  Emissions.fields:           'EmisACET_Total       ', 'GIGCchem',
                              'EmisACET_Anthro      ', 'GIGCchem',
                              'EmisACET_BioBurn     ', 'GIGCchem',
                              'EmisACET_Biogenic    ', 'GIGCchem',
                              'EmisACET_Ocean       ', 'GIGCchem',
                              'EmisALD2_Total       ', 'GIGCchem',
                              'EmisALD2_Anthro      ', 'GIGCchem',
                              'EmisALD2_BioBurn     ', 'GIGCchem',
                              'EmisALD2_Biogenic    ', 'GIGCchem',
                              'EmisALD2_Ocean       ', 'GIGCchem',
                              'EmisALD2_PlantDecay  ', 'GIGCchem',
                              'EmisALD2_Ship        ', 'GIGCchem',
                              'EmisALK4_Total       ', 'GIGCchem',
                              'EmisALK4_Aircraft    ', 'GIGCchem',
                              'EmisALK4_Anthro      ', 'GIGCchem',
                              'EmisALK4_BioBurn     ', 'GIGCchem',
                              'EmisALK4_Ship        ', 'GIGCchem',
                              'EmisBCPI_Total       ', 'GIGCchem',
                              'EmisBCPI_Aircraft    ', 'GIGCchem',
                              'EmisBCPI_Anthro      ', 'GIGCchem',
                              'EmisBCPI_BioBurn     ', 'GIGCchem',
                              'EmisBCPI_Ship        ', 'GIGCchem',
                              'EmisBCPO_Total       ', 'GIGCchem',
                              'EmisBCPO_Anthro      ', 'GIGCchem',
                              'EmisBCPO_BioBurn     ', 'GIGCchem',
                              'EmisBCPO_Ship        ', 'GIGCchem',
                              'EmisBENZ_Total       ', 'GIGCchem',
                              'EmisBENZ_Anthro      ', 'GIGCchem',
                              'EmisBENZ_BioBurn     ', 'GIGCchem',
                              'EmisBENZ_Ship        ', 'GIGCchem',
                              'EmisC2H2_Total       ', 'GIGCchem',
                              'EmisC2H2_Anthro      ', 'GIGCchem',
                              'EmisC2H2_Ship        ', 'GIGCchem',
                              'EmisC2H4_Total       ', 'GIGCchem',
                              'EmisC2H4_Anthro      ', 'GIGCchem',
                              'EmisC2H4_Biogenic    ', 'GIGCchem',
                              'EmisC2H4_Ship        ', 'GIGCchem',
                              'EmisC2H6_Total       ', 'GIGCchem',
                              'EmisC2H6_Aircraft    ', 'GIGCchem',
                              'EmisC2H6_Anthro      ', 'GIGCchem',
                              'EmisC2H6_BioBurn     ', 'GIGCchem',
                              'EmisC2H6_Ship        ', 'GIGCchem',
                              'EmisC3H8_Total       ', 'GIGCchem',
                              'EmisC3H8_Aircraft    ', 'GIGCchem',
                              'EmisC3H8_Anthro      ', 'GIGCchem',
                              'EmisC3H8_BioBurn     ', 'GIGCchem',
                              'EmisC3H8_Ship        ', 'GIGCchem',
                              'EmisCH2Br2_Ocean     ', 'GIGCchem',
                              'EmisCH2I2_Ocean      ', 'GIGCchem',
                              'EmisCH2ICl_Ocean     ', 'GIGCchem',
                              'EmisCH2IBr_Ocean     ', 'GIGCchem',
                              'EmisCH2O_Total       ', 'GIGCchem',
                              'EmisCH2O_Aircraft    ', 'GIGCchem',
                              'EmisCH2O_Anthro      ', 'GIGCchem',
                              'EmisCH2O_BioBurn     ', 'GIGCchem',
                              'EmisCH2O_Ship        ', 'GIGCchem',
                              'EmisCH3I_Ocean       ', 'GIGCchem',
                              'EmisCH4_Total        ', 'GIGCchem',
                              'EmisCH4_Anthro       ', 'GIGCchem',
                              'EmisCH4_BioBurn      ', 'GIGCchem',
                              'EmisCH4_Ship         ', 'GIGCchem',
                              'EmisCHBr3_Ocean      ', 'GIGCchem',
                              'EmisCO_Total         ', 'GIGCchem',
                              'EmisCO_Aircraft      ', 'GIGCchem',
                              'EmisCO_Anthro        ', 'GIGCchem',
                              'EmisCO_BioBurn       ', 'GIGCchem',
                              'EmisCO_Ship          ', 'GIGCchem',
                              'EmisCO2_Total        ', 'GIGCchem',
                              'EmisCO2_Anthro       ', 'GIGCchem',
                              'EmisCO2_BioBurn      ', 'GIGCchem',
                              'EmisCO2_Ship         ', 'GIGCchem',
                              'EmisDMS_Ocean        ', 'GIGCchem',
                              'EmisDST1_Natural     ', 'GIGCchem',
                              'EmisDST2_Natural     ', 'GIGCchem',
                              'EmisDST3_Natural     ', 'GIGCchem',
                              'EmisDST4_Natural     ', 'GIGCchem',
                              'EmisEOH_Total        ', 'GIGCchem',
                              'EmisEOH_Anthro       ', 'GIGCchem',
                              'EmisEOH_BioBurn      ', 'GIGCchem',
                              'EmisEOH_Biogenic     ', 'GIGCchem',
                              'EmisEOH_PlantDecay   ', 'GIGCchem',
                              'EmisEOH_Ship         ', 'GIGCchem',
                              'EmisHAC_Total        ', 'GIGCchem',
                              'EmisHAC_Anthro       ', 'GIGCchem',
                              'EmisGLYC_Total       ', 'GIGCchem',
                              'EmisGLYC_Anthro      ', 'GIGCchem',
                              'EmisGLYX_Total       ', 'GIGCchem',
                              'EmisGLYX_Anthro      ', 'GIGCchem',
                              'EmisHCOOH_Total      ', 'GIGCchem',
                              'EmisHCOOH_Anthro     ', 'GIGCchem',
                              'EmisHCOOH_Ship       ', 'GIGCchem',
                              'EmisHNO2_Anthro      ', 'GIGCchem',
                              'EmisHNO3_Ship        ', 'GIGCchem',
                              'EmisISOP_Total       ', 'GIGCchem',
                              'EmisISOP_Anthro      ', 'GIGCchem',
                              'EmisISOP_Biogenic    ', 'GIGCchem',
                              'EmisLIMO_Biogenic    ', 'GIGCchem',
                              'EmisMACR_Total       ', 'GIGCchem',
                              'EmisMACR_Aircraft    ', 'GIGCchem',
                              'EmisMACR_Anthro      ', 'GIGCchem',
                              'EmisMEK_Total        ', 'GIGCchem',
                              'EmisMEK_Anthro       ', 'GIGCchem',
                              'EmisMEK_BioBurn      ', 'GIGCchem',
                              'EmisMEK_Ship         ', 'GIGCchem',
                              'EmisMGLY_Total       ', 'GIGCchem',
                              'EmisMGLY_Anthro      ', 'GIGCchem',
                              'EmisMOH_Total        ', 'GIGCchem',
                              'EmisMOH_Anthro       ', 'GIGCchem',
                              'EmisMOH_Ship         ', 'GIGCchem',
                              'EmisMTPA_Total       ', 'GIGCchem',
                              'EmisMTPA_BioBurn     ', 'GIGCchem',
                              'EmisMTPA_Biogenic    ', 'GIGCchem',
                              'EmisMTPO_Biogenic    ', 'GIGCchem',
                              'EmisMVK_Anthro       ', 'GIGCchem',
                              'EmisNAP_Total        ', 'GIGCchem',
                              'EmisNAP_Anthro       ', 'GIGCchem',
                              'EmisNAP_BioBurn      ', 'GIGCchem',
                              'EmisNH3_Total        ', 'GIGCchem',
                              'EmisNH3_Anthro       ', 'GIGCchem',
                              'EmisNH3_BioBurn      ', 'GIGCchem',
                              'EmisNH3_Natural      ', 'GIGCchem',
                              'EmisNH3_Seabirds     ', 'GIGCchem',
                              'EmisNH3_Ship         ', 'GIGCchem',
                              'EmisNO_Total         ', 'GIGCchem',
                              'EmisNO_Aircraft      ', 'GIGCchem',
                              'EmisNO_Anthro        ', 'GIGCchem',
                              'EmisNO_BioBurn       ', 'GIGCchem',
                              'EmisNO_Lightning     ', 'GIGCchem',
                              'EmisNO_Ship          ', 'GIGCchem',
                              'EmisNO_Soil          ', 'GIGCchem',
                              'EmisNO2_Anthro       ', 'GIGCchem',
                              'EmisNO2_Ship         ', 'GIGCchem',
                              'EmisO3_Ship          ', 'GIGCchem',
                              'EmisOCPI_Total       ', 'GIGCchem',
                              'EmisOCPI_Aircraft    ', 'GIGCchem',
                              'EmisOCPI_Anthro      ', 'GIGCchem',
                              'EmisOCPI_BioBurn     ', 'GIGCchem',
                              'EmisOCPI_Ship        ', 'GIGCchem',
                              'EmisOCPO_Total       ', 'GIGCchem',
                              'EmisOCPO_Anthro      ', 'GIGCchem',
                              'EmisOCPO_BioBurn     ', 'GIGCchem',
                              'EmisOCPO_Ship        ', 'GIGCchem',
                              'EmispFe_Total        ', 'GIGCchem',
                              'EmispFe_Anthro       ', 'GIGCchem',
                              'EmispFe_Ship         ', 'GIGCchem',
                              'EmisPOG1_Total       ', 'GIGCchem',
                              'EmisPOG1_Anthro      ', 'GIGCchem',
                              'EmisPOG1_BioBurn     ', 'GIGCchem',
                              'EmisPOG2_Total       ', 'GIGCchem',
                              'EmisPOG2_Anthro      ', 'GIGCchem',
                              'EmisPOG2_BioBurn     ', 'GIGCchem',
                              'EmisPRPE_Total       ', 'GIGCchem',
                              'EmisPRPE_Aircraft    ', 'GIGCchem',
                              'EmisPRPE_Anthro      ', 'GIGCchem',
                              'EmisPRPE_BioBurn     ', 'GIGCchem',
                              'EmisPRPE_Biogenic    ', 'GIGCchem',
                              'EmisPRPE_Ship        ', 'GIGCchem',
                              'EmisRCHO_Total       ', 'GIGCchem',
                              'EmisRCHO_Aircraft    ', 'GIGCchem',
                              'EmisRCHO_Anthro      ', 'GIGCchem',
                              'EmisSESQ_Biogenic    ', 'GIGCchem',
                              'EmisBr2_Natural      ', 'GIGCchem',
                              'EmisBrSALA_Natural   ', 'GIGCchem',
                              'EmisBrSALC_Natural   ', 'GIGCchem',
                              'EmisSALA_Natural     ', 'GIGCchem',
                              'EmisSALC_Natural     ', 'GIGCchem',
                              'EmisSO2_Total        ', 'GIGCchem',
                              'EmisSO2_Aircraft     ', 'GIGCchem',
                              'EmisSO2_Anthro       ', 'GIGCchem',
                              'EmisSO2_BioBurn      ', 'GIGCchem',
                              'EmisSO2_VolcErupt    ', 'GIGCchem',
                              'EmisSO2_VolcDegas    ', 'GIGCchem',
                              'EmisSO2_Ship         ', 'GIGCchem',
                              'EmisSO4_Total        ', 'GIGCchem',
                              'EmisSO4_Aircraft     ', 'GIGCchem',
                              'EmisSO4_Anthro       ', 'GIGCchem',
                              'EmisSO4_Ship         ', 'GIGCchem',
                              'EmisSOAP_Total       ', 'GIGCchem',
                              'EmisSOAP_Aircraft    ', 'GIGCchem',
                              'EmisSOAP_Anthro      ', 'GIGCchem',
                              'EmisSOAP_Biogenic    ', 'GIGCchem',
                              'EmisSOAP_BioBurn     ', 'GIGCchem',
                              'EmisSOAP_Ship        ', 'GIGCchem',
                              'EmisSOAS_Biogenic    ', 'GIGCchem',
                              'EmisTOLU_Total       ', 'GIGCchem',
                              'EmisTOLU_Anthro      ', 'GIGCchem',
                              'EmisTOLU_BioBurn     ', 'GIGCchem',
                              'EmisTOLU_Ship        ', 'GIGCchem',
                              'EmisXYLE_Total       ', 'GIGCchem',
                              'EmisXYLE_Anthro      ', 'GIGCchem',
                              'EmisXYLE_BioBurn     ', 'GIGCchem',
                              'EmisXYLE_Ship        ', 'GIGCchem',
::
#==============================================================================
# %%%%% THE AerosolMass COLLECTION %%%%%
#
# Aerosol and PM2.5 mass
#
# Available for full-chemistry and aerosol-only simulations
#==============================================================================
  AerosolMass.template:       '%y4%m2%d2_%h2%n2z.nc4',
  AerosolMass.format:         'CFIO',
  AerosolMass.frequency:      010000
  AerosolMass.duration:       010000
  AerosolMass.mode:           'time-averaged'
  AerosolMass.fields:         'AerMassBC            ', 'GIGCchem',
                              'AerMassNH4           ', 'GIGCchem',
                              'AerMassNIT           ', 'GIGCchem',
                              'AerMassPOA           ', 'GIGCchem',
                              'AerMassSAL           ', 'GIGCchem',
                              'AerMassSO4           ', 'GIGCchem',
                              'AerMassSOAGX         ', 'GIGCchem',
                              'AerMassSOAMG         ', 'GIGCchem',
                              'PM25                 ', 'GIGCchem',
                              'TotalOA              ', 'GIGCchem',
                              'TotalOC              ', 'GIGCchem',
::
#==============================================================================
# %%%%% The Aerosols COLLECTION %%%%%
#
# Aerosol optical depth, surface area, number density, and hygroscopic growth
#
# Available for full-chemistry or aerosol-only simulations
#==============================================================================
  Aerosols.template:          '%y4%m2%d2_%h2%n2z.nc4',
  Aerosols.format:            'CFIO',
  Aerosols.frequency:         010000
  Aerosols.duration:          010000
  Aerosols.mode:              'time-averaged'
  Aerosols.fields:            'AODHygWL1_SO4                 ', 'GIGCchem',
                              'AODHygWL1_BCPI                ', 'GIGCchem',
                              'AODHygWL1_OCPI                ', 'GIGCchem',
                              'AODHygWL1_SALA                ', 'GIGCchem',
                              'AODHygWL1_SALC                ', 'GIGCchem',
                              'AODDust                       ', 'GIGCchem',
                              'AODDustWL1_bin1               ', 'GIGCchem',
                              'AODDustWL1_bin2               ', 'GIGCchem',
                              'AODDustWL1_bin3               ', 'GIGCchem',
                              'AODDustWL1_bin4               ', 'GIGCchem',
                              'AODDustWL1_bin5               ', 'GIGCchem',
                              'AODDustWL1_bin6               ', 'GIGCchem',
                              'AODDustWL1_bin7               ', 'GIGCchem',
                              'AODSOAfromAqIsopreneWL1       ', 'GIGCchem',
                              'AODStratLiquidAerWL1          ', 'GIGCchem',
                              'AODPolarStratCloudWL1         ', 'GIGCchem',
                              'AerHygroscopicGrowth_SO4      ', 'GIGCchem',
                              'AerHygroscopicGrowth_BCPI     ', 'GIGCchem',
                              'AerHygroscopicGrowth_OCPI     ', 'GIGCchem',
                              'AerHygroscopicGrowth_SALA     ', 'GIGCchem',
                              'AerHygroscopicGrowth_SALC     ', 'GIGCchem',
                              'AerNumDensityStratLiquid      ', 'GIGCchem',
                              'AerNumDensityStratParticulate ', 'GIGCchem',
                              'AerAqueousVolume              ', 'GIGCchem',
                              'AerSurfAreaDust               ', 'GIGCchem',
                              'AerSurfAreaHyg_SO4            ', 'GIGCchem',
                              'AerSurfAreaHyg_BCPI           ', 'GIGCchem',
                              'AerSurfAreaHyg_OCPI           ', 'GIGCchem',
                              'AerSurfAreaHyg_SALA           ', 'GIGCchem',
                              'AerSurfAreaHyg_SALC           ', 'GIGCchem',
                              'AerSurfAreaStratLiquid        ', 'GIGCchem',
                              'AerSurfAreaPolarStratCloud    ', 'GIGCchem',
                              'Chem_AeroAreaMDUST1           ', 'GIGCchem',
                              'Chem_AeroAreaMDUST2           ', 'GIGCchem',
                              'Chem_AeroAreaMDUST3           ', 'GIGCchem',
                              'Chem_AeroAreaMDUST4           ', 'GIGCchem',
                              'Chem_AeroAreaMDUST5           ', 'GIGCchem',
                              'Chem_AeroAreaMDUST6           ', 'GIGCchem',
                              'Chem_AeroAreaMDUST7           ', 'GIGCchem',
                              'Chem_AeroAreaSULF             ', 'GIGCchem',
                              'Chem_AeroAreaBC               ', 'GIGCchem',
                              'Chem_AeroAreaOC               ', 'GIGCchem',
                              'Chem_AeroAreaSSA              ', 'GIGCchem',
                              'Chem_AeroAreaSSC              ', 'GIGCchem',
                              'Chem_AeroAreaBGSULF           ', 'GIGCchem',
                              'Chem_AeroAreaICEI             ', 'GIGCchem',
                              'Chem_AeroRadiMDUST1           ', 'GIGCchem',
                              'Chem_AeroRadiMDUST2           ', 'GIGCchem',
                              'Chem_AeroRadiMDUST3           ', 'GIGCchem',
                              'Chem_AeroRadiMDUST4           ', 'GIGCchem',
                              'Chem_AeroRadiMDUST5           ', 'GIGCchem',
                              'Chem_AeroRadiMDUST6           ', 'GIGCchem',
                              'Chem_AeroRadiMDUST7           ', 'GIGCchem',
                              'Chem_AeroRadiSULF             ', 'GIGCchem',
                              'Chem_AeroRadiBC               ', 'GIGCchem',
                              'Chem_AeroRadiOC               ', 'GIGCchem',
                              'Chem_AeroRadiSSA              ', 'GIGCchem',
                              'Chem_AeroRadiSSC              ', 'GIGCchem',
                              'Chem_AeroRadiBGSULF           ', 'GIGCchem',
                              'Chem_AeroRadiICEI             ', 'GIGCchem',
                              'Chem_WetAeroAreaMDUST1        ', 'GIGCchem',
                              'Chem_WetAeroAreaMDUST2        ', 'GIGCchem',
                              'Chem_WetAeroAreaMDUST3        ', 'GIGCchem',
                              'Chem_WetAeroAreaMDUST4        ', 'GIGCchem',
                              'Chem_WetAeroAreaMDUST5        ', 'GIGCchem',
                              'Chem_WetAeroAreaMDUST6        ', 'GIGCchem',
                              'Chem_WetAeroAreaMDUST7        ', 'GIGCchem',
                              'Chem_WetAeroAreaSULF          ', 'GIGCchem',
                              'Chem_WetAeroAreaBC            ', 'GIGCchem',
                              'Chem_WetAeroAreaOC            ', 'GIGCchem',
                              'Chem_WetAeroAreaSSA           ', 'GIGCchem',
                              'Chem_WetAeroAreaSSC           ', 'GIGCchem',
                              'Chem_WetAeroAreaBGSULF        ', 'GIGCchem',
                              'Chem_WetAeroAreaICEI          ', 'GIGCchem',
                              'Chem_WetAeroRadiMDUST1        ', 'GIGCchem',
                              'Chem_WetAeroRadiMDUST2        ', 'GIGCchem',
                              'Chem_WetAeroRadiMDUST3        ', 'GIGCchem',
                              'Chem_WetAeroRadiMDUST4        ', 'GIGCchem',
                              'Chem_WetAeroRadiMDUST5        ', 'GIGCchem',
                              'Chem_WetAeroRadiMDUST6        ', 'GIGCchem',
                              'Chem_WetAeroRadiMDUST7        ', 'GIGCchem',
                              'Chem_WetAeroRadiSULF          ', 'GIGCchem',
                              'Chem_WetAeroRadiBC            ', 'GIGCchem',
                              'Chem_WetAeroRadiOC            ', 'GIGCchem',
                              'Chem_WetAeroRadiSSA           ', 'GIGCchem',
                              'Chem_WetAeroRadiSSC           ', 'GIGCchem',
                              'Chem_WetAeroRadiBGSULF        ', 'GIGCchem',
                              'Chem_WetAeroRadiICEI          ', 'GIGCchem',
                              'Chem_StatePSC                 ', 'GIGCchem',
                              'Chem_KhetiSLAN2O5H2O          ', 'GIGCchem',
                              'Chem_KhetiSLAN2O5HCl          ', 'GIGCchem',
                              'Chem_KhetiSLAClNO3H2O         ', 'GIGCchem',
                              'Chem_KhetiSLAClNO3HCl         ', 'GIGCchem',
                              'Chem_KhetiSLAClNO3HBr         ', 'GIGCchem',
                              'Chem_KhetiSLABrNO3H2O         ', 'GIGCchem',
                              'Chem_KhetiSLABrNO3HCl         ', 'GIGCchem',
                              'Chem_KhetiSLAHOClHCl          ', 'GIGCchem',
                              'Chem_KhetiSLAHOClHBr          ', 'GIGCchem',
                              'Chem_KhetiSLAHOBrHCl          ', 'GIGCchem',
                              'Chem_KhetiSLAHOBrHBr          ', 'GIGCchem',
::
#==============================================================================
# Budget defined as species kg/s in the column (full, troposphere, or PBL) 
# due to a single component (e.g. chemistry); default = ozone only; add more 
# species as needed (advected only)
  Budget.template:            '%y4%m2%d2_%h2%n2z.nc4',
  Budget.format:              'CFIO',
  Budget.frequency:           010000
  Budget.duration:            010000
  Budget.mode:                'time-averaged'
  Budget.fields:              'BudgetEmisDryDepFull_O3  ', 'GIGCchem',  
                              'BudgetEmisDryDepTrop_O3  ', 'GIGCchem',  
                              'BudgetEmisDryDepPBL_O3   ', 'GIGCchem',  
                              'BudgetChemistryFull_O3   ', 'GIGCchem',
                              'BudgetChemistryTrop_O3   ', 'GIGCchem',
                              'BudgetChemistryPBL_O3    ', 'GIGCchem',  
                              'BudgetMixingFull_O3      ', 'GIGCchem',
                              'BudgetMixingTrop_O3      ', 'GIGCchem',
                              'BudgetMixingPBL_O3       ', 'GIGCchem',   
                              'BudgetConvectionFull_O3  ', 'GIGCchem',
                              'BudgetConvectionTrop_O3  ', 'GIGCchem',
                              'BudgetConvectionPBL_O3   ', 'GIGCchem',  
                              'BudgetWetDepFull_SO4     ', 'GIGCchem',
                              'BudgetWetDepTrop_SO4     ', 'GIGCchem',
                              'BudgetWetDepPBL_SO4      ', 'GIGCchem',  
::
#==============================================================================
# %%%%% THE CloudConvFlux COLLECTION %%%%%
#
# Cloud convective flux (default = advected species)
#
# Available for all simulations
#==============================================================================
  CloudConvFlux.template:     '%y4%m2%d2_%h2%n2z.nc4',
  CloudConvFlux.format:       'CFIO',
  CloudConvFlux.frequency:    010000
  CloudConvFlux.duration:     010000
  CloudConvFlux.mode:         'time-averaged'
  CloudConvFlux.fields:       'CloudConvFlux_NO       ', 'GIGCchem',
                              'CloudConvFlux_O3       ', 'GIGCchem',
                              'CloudConvFlux_PAN      ', 'GIGCchem',
                              'CloudConvFlux_CO       ', 'GIGCchem',
                              'CloudConvFlux_ALK4     ', 'GIGCchem',
                              'CloudConvFlux_ISOP     ', 'GIGCchem',
                              'CloudConvFlux_HNO3     ', 'GIGCchem',
                              'CloudConvFlux_H2O2     ', 'GIGCchem',
                              'CloudConvFlux_ACET     ', 'GIGCchem',
                              'CloudConvFlux_MEK      ', 'GIGCchem',
                              'CloudConvFlux_ALD2     ', 'GIGCchem',
                              'CloudConvFlux_RCHO     ', 'GIGCchem',
                              'CloudConvFlux_MVK      ', 'GIGCchem',
                              'CloudConvFlux_MACR     ', 'GIGCchem',
                              'CloudConvFlux_NPMN     ', 'GIGCchem',
                              'CloudConvFlux_PPN      ', 'GIGCchem',
                              'CloudConvFlux_R4N2     ', 'GIGCchem',
                              'CloudConvFlux_PRPE     ', 'GIGCchem',
                              'CloudConvFlux_C3H8     ', 'GIGCchem',
                              'CloudConvFlux_CH2O     ', 'GIGCchem',
                              'CloudConvFlux_C2H6     ', 'GIGCchem',
                              'CloudConvFlux_N2O5     ', 'GIGCchem',
                              'CloudConvFlux_HNO4     ', 'GIGCchem',
                              'CloudConvFlux_MP       ', 'GIGCchem',
                              'CloudConvFlux_DMS      ', 'GIGCchem',
                              'CloudConvFlux_SO2      ', 'GIGCchem',
                              'CloudConvFlux_SO4      ', 'GIGCchem',
                              'CloudConvFlux_SO4s     ', 'GIGCchem',
                              'CloudConvFlux_MSA      ', 'GIGCchem',
                              'CloudConvFlux_NH3      ', 'GIGCchem',
                              'CloudConvFlux_NH4      ', 'GIGCchem',
                              'CloudConvFlux_NIT      ', 'GIGCchem',
                              'CloudConvFlux_NITs     ', 'GIGCchem',
                              'CloudConvFlux_BCPI     ', 'GIGCchem',
                              'CloudConvFlux_OCPI     ', 'GIGCchem',
                              'CloudConvFlux_BCPO     ', 'GIGCchem',
                              'CloudConvFlux_OCPO     ', 'GIGCchem',
                              'CloudConvFlux_DST1     ', 'GIGCchem',
                              'CloudConvFlux_DST2     ', 'GIGCchem',
                              'CloudConvFlux_DST3     ', 'GIGCchem',
                              'CloudConvFlux_DST4     ', 'GIGCchem',
                              'CloudConvFlux_SALA     ', 'GIGCchem',
                              'CloudConvFlux_SALC     ', 'GIGCchem',
                              'CloudConvFlux_Br2      ', 'GIGCchem',
                              'CloudConvFlux_Br       ', 'GIGCchem',
                              'CloudConvFlux_BrO      ', 'GIGCchem',
                              'CloudConvFlux_HOBr     ', 'GIGCchem',
                              'CloudConvFlux_HBr      ', 'GIGCchem',
                              'CloudConvFlux_BrNO2    ', 'GIGCchem',
                              'CloudConvFlux_BrNO3    ', 'GIGCchem',
                              'CloudConvFlux_CHBr3    ', 'GIGCchem',
                              'CloudConvFlux_CH2Br2   ', 'GIGCchem',
                              'CloudConvFlux_CH3Br    ', 'GIGCchem',
                              'CloudConvFlux_MPN      ', 'GIGCchem',
                              'CloudConvFlux_ISOPND   ', 'GIGCchem',
                              'CloudConvFlux_ISOPNB   ', 'GIGCchem',
                              'CloudConvFlux_MOBA     ', 'GIGCchem',
                              'CloudConvFlux_PROPNN   ', 'GIGCchem',
                              'CloudConvFlux_HAC      ', 'GIGCchem',
                              'CloudConvFlux_GLYC     ', 'GIGCchem',
                              'CloudConvFlux_MVKN     ', 'GIGCchem',
                              'CloudConvFlux_MACRN    ', 'GIGCchem',
                              'CloudConvFlux_MAP      ', 'GIGCchem',
                              'CloudConvFlux_NO2      ', 'GIGCchem',
                              'CloudConvFlux_NO3      ', 'GIGCchem',
                              'CloudConvFlux_HNO2     ', 'GIGCchem',
                              'CloudConvFlux_BENZ     ', 'GIGCchem',
                              'CloudConvFlux_TOLU     ', 'GIGCchem',
                              'CloudConvFlux_XYLE     ', 'GIGCchem',
                              'CloudConvFlux_MTPA     ', 'GIGCchem',
                              'CloudConvFlux_LIMO     ', 'GIGCchem',
                              'CloudConvFlux_MTPO     ', 'GIGCchem',
                              'CloudConvFlux_SOAP     ', 'GIGCchem',
                              'CloudConvFlux_SOAS     ', 'GIGCchem',
                              'CloudConvFlux_EOH      ', 'GIGCchem',
                              'CloudConvFlux_MGLY     ', 'GIGCchem',
                              'CloudConvFlux_GLYX     ', 'GIGCchem',
                              'CloudConvFlux_ACTA     ', 'GIGCchem',
                              'CloudConvFlux_HPALD    ', 'GIGCchem',
                              'CloudConvFlux_DHDN     ', 'GIGCchem',
                              'CloudConvFlux_ETHLN    ', 'GIGCchem',
                              'CloudConvFlux_HCOOH    ', 'GIGCchem',
                              'CloudConvFlux_IEPOXA   ', 'GIGCchem',
                              'CloudConvFlux_IEPOXB   ', 'GIGCchem',
                              'CloudConvFlux_IEPOXD   ', 'GIGCchem',
                              'CloudConvFlux_ISN1     ', 'GIGCchem',
                              'CloudConvFlux_RIPA     ', 'GIGCchem',
                              'CloudConvFlux_RIPB     ', 'GIGCchem',
                              'CloudConvFlux_RIPD     ', 'GIGCchem',
                              'CloudConvFlux_IMAE     ', 'GIGCchem',
                              'CloudConvFlux_SOAIE    ', 'GIGCchem',
                              'CloudConvFlux_SOAME    ', 'GIGCchem',
                              'CloudConvFlux_SOAGX    ', 'GIGCchem',
                              'CloudConvFlux_SOAMG    ', 'GIGCchem',
                              'CloudConvFlux_LVOC     ', 'GIGCchem',
                              'CloudConvFlux_LVOCOA   ', 'GIGCchem',
                              'CloudConvFlux_ISN1OG   ', 'GIGCchem',
                              'CloudConvFlux_ISN1OA   ', 'GIGCchem',
                              'CloudConvFlux_MONITS   ', 'GIGCchem',
                              'CloudConvFlux_MONITU   ', 'GIGCchem',
                              'CloudConvFlux_HONIT    ', 'GIGCchem',
                              'CloudConvFlux_IONITA   ', 'GIGCchem',
                              'CloudConvFlux_MONITA   ', 'GIGCchem',
                              'CloudConvFlux_INDIOL   ', 'GIGCchem',
                              'CloudConvFlux_IPMN     ', 'GIGCchem',
                              'CloudConvFlux_HC187    ', 'GIGCchem',
                              'CloudConvFlux_N2O      ', 'GIGCchem',
                              'CloudConvFlux_OCS      ', 'GIGCchem',
                              'CloudConvFlux_CH4      ', 'GIGCchem',
                              'CloudConvFlux_BrCl     ', 'GIGCchem',
                              'CloudConvFlux_HCl      ', 'GIGCchem',
                              'CloudConvFlux_CCl4     ', 'GIGCchem',
                              'CloudConvFlux_CH3Cl    ', 'GIGCchem',
                              'CloudConvFlux_CH3CCl3  ', 'GIGCchem',
                              'CloudConvFlux_CFC113   ', 'GIGCchem',
                              'CloudConvFlux_CFC114   ', 'GIGCchem',
                              'CloudConvFlux_CFC115   ', 'GIGCchem',
                              'CloudConvFlux_HCFC123  ', 'GIGCchem',
                              'CloudConvFlux_HCFC141b ', 'GIGCchem',
                              'CloudConvFlux_HCFC142b ', 'GIGCchem',
                              'CloudConvFlux_CFC11    ', 'GIGCchem',
                              'CloudConvFlux_CFC12    ', 'GIGCchem',
                              'CloudConvFlux_HCFC22   ', 'GIGCchem',
                              'CloudConvFlux_H1211    ', 'GIGCchem',
                              'CloudConvFlux_H1301    ', 'GIGCchem',
                              'CloudConvFlux_H2402    ', 'GIGCchem',
                              'CloudConvFlux_Cl       ', 'GIGCchem',
                              'CloudConvFlux_ClO      ', 'GIGCchem',
                              'CloudConvFlux_HOCl     ', 'GIGCchem',
                              'CloudConvFlux_ClNO3    ', 'GIGCchem',
                              'CloudConvFlux_ClNO2    ', 'GIGCchem',
                              'CloudConvFlux_ClOO     ', 'GIGCchem',
                              'CloudConvFlux_OClO     ', 'GIGCchem',
                              'CloudConvFlux_Cl2      ', 'GIGCchem',
                              'CloudConvFlux_Cl2O2    ', 'GIGCchem',
                              'CloudConvFlux_H2O      ', 'GIGCchem',
                              'CloudConvFlux_BrSALA   ', 'GIGCchem',
                              'CloudConvFlux_BrSALC   ', 'GIGCchem',
                              'CloudConvFlux_CHCl3    ', 'GIGCchem',
                              'CloudConvFlux_CH2Cl2   ', 'GIGCchem',
                              'CloudConvFlux_CH3I     ', 'GIGCchem',
                              'CloudConvFlux_CH2I2    ', 'GIGCchem',
                              'CloudConvFlux_CH2ICl   ', 'GIGCchem',
                              'CloudConvFlux_CH2IBr   ', 'GIGCchem',
                              'CloudConvFlux_HOI      ', 'GIGCchem',
                              'CloudConvFlux_I2       ', 'GIGCchem',
                              'CloudConvFlux_IBr      ', 'GIGCchem',
                              'CloudConvFlux_ICl      ', 'GIGCchem',
                              'CloudConvFlux_I        ', 'GIGCchem',
                              'CloudConvFlux_IO       ', 'GIGCchem',
                              'CloudConvFlux_HI       ', 'GIGCchem',
                              'CloudConvFlux_OIO      ', 'GIGCchem',
                              'CloudConvFlux_INO      ', 'GIGCchem',
                              'CloudConvFlux_IONO     ', 'GIGCchem',
                              'CloudConvFlux_IONO2    ', 'GIGCchem',
                              'CloudConvFlux_I2O2     ', 'GIGCchem',
                              'CloudConvFlux_I2O3     ', 'GIGCchem',
                              'CloudConvFlux_I2O4     ', 'GIGCchem',
                              'CloudConvFlux_ISALA    ', 'GIGCchem',
                              'CloudConvFlux_ISALC    ', 'GIGCchem',
                              'CloudConvFlux_AERI     ', 'GIGCchem',
                              'CloudConvFlux_pFe      ', 'GIGCchem',
::
#==============================================================================
# %%%%% THE ConcAboveSfc COLLECTION %%%%%
#
# Concentrations of O3 and HNO3 at a user-specified altitude above
# the surface, such as 10m.  Set the desired output altitude in meters
# in the DEPOSITION MENU of input.geos.
#
# NOTES: 
# (1) This collection requires dry deposition to be turned on.
# (2) All of the fields in the collection must be turned on.
# (3) This collection is best used with mode "instantaneous".
#==============================================================================
  ConcAboveSfc.template:      '%y4%m2%d2_%h2%n2z.nc4',
  ConcAboveSfc.format:        'CFIO',
  ConcAboveSfc.frequency:     010000
  ConcAboveSfc.duration:      010000
  ConcAboveSfc.mode:          'instantaneous'
  ConcAboveSfc.fields:        'DryDepRaALT1                  ', 'GIGCchem',
                              'DryDepVelForALT1_O3           ', 'GIGCchem',
                              'DryDepVelForALT1_HNO3         ', 'GIGCchem',
                              'SpeciesConcALT1_O3            ', 'GIGCchem',
                              'SpeciesConcALT1_HNO3          ', 'GIGCchem',
::
#==============================================================================
# %%%%% THE ConcAfterChem COLLECTION %%%%%
#
# Concentrations of OH, HO2, O1D, O3P immediately after exiting the KPP solver
# or OH after the CH4 specialty-simulation chemistry routine.
#
# OH:       Available for all full-chemistry simulations and CH4 specialty sim
# HO2:      Available for all full-chemistry simulations
# O1D, O3P: Availalbe for full-chemistry simulations using UCX mechanism
#==============================================================================
  ConcAfterChem.template:     '%y4%m2%d2_%h2%n2z.nc4',
  ConcAfterChem.format:       'CFIO',
  ConcAfterChem.frequency:    010000
  ConcAfterChem.duration:     010000
  ConcAfterChem.mode:         'time-averaged'
  ConcAfterChem.fields:       'OHconcAfterChem               ', 'GIGCchem',
                              'HO2concAfterChem              ', 'GIGCchem',
                              'O1DconcAfterChem              ', 'GIGCchem',
                              'O3PconcAfterChem              ', 'GIGCchem',
::
#==============================================================================
# %%%%% THE DryDep COLLECTION %%%%%
#
# Dry depositon fluxes and velocities (for all dry-depositing species)
#
# Available for all simuations that have dry-depositing species
#==============================================================================
  DryDep.template:            '%y4%m2%d2_%h2%n2z.nc4',
  DryDep.format:              'CFIO',
  DryDep.frequency:           010000
  DryDep.duration:            010000
  DryDep.mode:                'time-averaged'
  DryDep.fields:              'DryDepVel_O3           ', 'GIGCchem',
                              'DryDepVel_PAN          ', 'GIGCchem',
                              'DryDepVel_HNO3         ', 'GIGCchem',
                              'DryDepVel_H2O2         ', 'GIGCchem',
                              'DryDepVel_ACET         ', 'GIGCchem',
                              'DryDepVel_ALD2         ', 'GIGCchem',
                              'DryDepVel_MVK          ', 'GIGCchem',
                              'DryDepVel_MACR         ', 'GIGCchem',
                              'DryDepVel_NPMN         ', 'GIGCchem',
                              'DryDepVel_PPN          ', 'GIGCchem',
                              'DryDepVel_R4N2         ', 'GIGCchem',
                              'DryDepVel_CH2O         ', 'GIGCchem',
                              'DryDepVel_N2O5         ', 'GIGCchem',
                              'DryDepVel_SO2          ', 'GIGCchem',
                              'DryDepVel_SO4          ', 'GIGCchem',
                              'DryDepVel_SO4S         ', 'GIGCchem',
                              'DryDepVel_MSA          ', 'GIGCchem',
                              'DryDepVel_NH3          ', 'GIGCchem',
                              'DryDepVel_NH4          ', 'GIGCchem',
                              'DryDepVel_NIT          ', 'GIGCchem',
                              'DryDepVel_NITS         ', 'GIGCchem',
                              'DryDepVel_BCPI         ', 'GIGCchem',
                              'DryDepVel_OCPI         ', 'GIGCchem',
                              'DryDepVel_BCPO         ', 'GIGCchem',
                              'DryDepVel_OCPO         ', 'GIGCchem',
                              'DryDepVel_DST1         ', 'GIGCchem',
                              'DryDepVel_DST2         ', 'GIGCchem',
                              'DryDepVel_DST3         ', 'GIGCchem',
                              'DryDepVel_DST4         ', 'GIGCchem',
                              'DryDepVel_SALA         ', 'GIGCchem',
                              'DryDepVel_SALC         ', 'GIGCchem',
                              'DryDepVel_Br2          ', 'GIGCchem',
                              'DryDepVel_HOBr         ', 'GIGCchem',
                              'DryDepVel_HBr          ', 'GIGCchem',
                              'DryDepVel_BrNO3        ', 'GIGCchem',
                              'DryDepVel_ISOPND       ', 'GIGCchem',
                              'DryDepVel_ISOPNB       ', 'GIGCchem',
                              'DryDepVel_PROPNN       ', 'GIGCchem',
                              'DryDepVel_HAC          ', 'GIGCchem',
                              'DryDepVel_GLYC         ', 'GIGCchem',
                              'DryDepVel_MVKN         ', 'GIGCchem',
                              'DryDepVel_MACRN        ', 'GIGCchem',
                              'DryDepVel_MAP          ', 'GIGCchem',
                              'DryDepVel_NO2          ', 'GIGCchem',
                              'DryDepVel_MTPA         ', 'GIGCchem',
                              'DryDepVel_LIMO         ', 'GIGCchem',
                              'DryDepVel_MTPO         ', 'GIGCchem',
                              'DryDepVel_SOAS         ', 'GIGCchem',
                              'DryDepVel_EOH          ', 'GIGCchem',
                              'DryDepVel_MGLY         ', 'GIGCchem',
                              'DryDepVel_GLYX         ', 'GIGCchem',
                              'DryDepVel_ACTA         ', 'GIGCchem',
                              'DryDepVel_HPALD        ', 'GIGCchem',
                              'DryDepVel_DHDN         ', 'GIGCchem',
                              'DryDepVel_ETHLN        ', 'GIGCchem',
                              'DryDepVel_HCOOH        ', 'GIGCchem',
                              'DryDepVel_IEPOXA       ', 'GIGCchem',
                              'DryDepVel_IEPOXB       ', 'GIGCchem',
                              'DryDepVel_IEPOXD       ', 'GIGCchem',
                              'DryDepVel_ISN1         ', 'GIGCchem',
                              'DryDepVel_RIPA         ', 'GIGCchem',
                              'DryDepVel_RIPB         ', 'GIGCchem',
                              'DryDepVel_RIPD         ', 'GIGCchem',
                              'DryDepVel_IMAE         ', 'GIGCchem',
                              'DryDepVel_SOAIE        ', 'GIGCchem',
                              'DryDepVel_SOAME        ', 'GIGCchem',
                              'DryDepVel_SOAGX        ', 'GIGCchem',
                              'DryDepVel_SOAMG        ', 'GIGCchem',
                              'DryDepVel_LVOC         ', 'GIGCchem',
                              'DryDepVel_LVOCOA       ', 'GIGCchem',
                              'DryDepVel_ISN1OG       ', 'GIGCchem',
                              'DryDepVel_ISN1OA       ', 'GIGCchem',
                              'DryDepVel_MONITS       ', 'GIGCchem',
                              'DryDepVel_MONITU       ', 'GIGCchem',
                              'DryDepVel_HONIT        ', 'GIGCchem',
                              'DryDepVel_IONITA       ', 'GIGCchem',
                              'DryDepVel_MONITA       ', 'GIGCchem',
                              'DryDepVel_INDIOL       ', 'GIGCchem',
                              'DryDepVel_IPMN         ', 'GIGCchem',
                              'DryDepVel_HC187        ', 'GIGCchem',
                              'DryDepVel_HCl          ', 'GIGCchem',
                              'DryDepVel_HOCl         ', 'GIGCchem',
                              'DryDepVel_ClNO3        ', 'GIGCchem',
                              'DryDepVel_BrSALA       ', 'GIGCchem',
                              'DryDepVel_BrSALC       ', 'GIGCchem',
                              'DryDepVel_HOI          ', 'GIGCchem',
                              'DryDepVel_I2           ', 'GIGCchem',
                              'DryDepVel_IBr          ', 'GIGCchem',
                              'DryDepVel_ICl          ', 'GIGCchem',
                              'DryDepVel_HI           ', 'GIGCchem',
                              'DryDepVel_IONO         ', 'GIGCchem',
                              'DryDepVel_IONO2        ', 'GIGCchem',
                              'DryDepVel_I2O2         ', 'GIGCchem',
                              'DryDepVel_I2O3         ', 'GIGCchem',
                              'DryDepVel_I2O4         ', 'GIGCchem',
                              'DryDepVel_ISALA        ', 'GIGCchem',
                              'DryDepVel_ISALC        ', 'GIGCchem',
                              'DryDepVel_AERI         ', 'GIGCchem',
                              'DryDepVel_pFe          ', 'GIGCchem',
                              'DryDep_O3              ', 'GIGCchem',
                              'DryDep_PAN             ', 'GIGCchem',
                              'DryDep_HNO3            ', 'GIGCchem',
                              'DryDep_H2O2            ', 'GIGCchem',
                              'DryDep_ACET            ', 'GIGCchem',
                              'DryDep_ALD2            ', 'GIGCchem',
                              'DryDep_MVK             ', 'GIGCchem',
                              'DryDep_MACR            ', 'GIGCchem',
                              'DryDep_NPMN            ', 'GIGCchem',
                              'DryDep_PPN             ', 'GIGCchem',
                              'DryDep_R4N2            ', 'GIGCchem',
                              'DryDep_CH2O            ', 'GIGCchem',
                              'DryDep_N2O5            ', 'GIGCchem',
                              'DryDep_SO2             ', 'GIGCchem',
                              'DryDep_SO4             ', 'GIGCchem',
                              'DryDep_SO4S            ', 'GIGCchem',
                              'DryDep_MSA             ', 'GIGCchem',
                              'DryDep_NH3             ', 'GIGCchem',
                              'DryDep_NH4             ', 'GIGCchem',
                              'DryDep_NIT             ', 'GIGCchem',
                              'DryDep_NITS            ', 'GIGCchem',
                              'DryDep_BCPI            ', 'GIGCchem',
                              'DryDep_OCPI            ', 'GIGCchem',
                              'DryDep_BCPO            ', 'GIGCchem',
                              'DryDep_OCPO            ', 'GIGCchem',
                              'DryDep_DST1            ', 'GIGCchem',
                              'DryDep_DST2            ', 'GIGCchem',
                              'DryDep_DST3            ', 'GIGCchem',
                              'DryDep_DST4            ', 'GIGCchem',
                              'DryDep_SALA            ', 'GIGCchem',
                              'DryDep_SALC            ', 'GIGCchem',
                              'DryDep_Br2             ', 'GIGCchem',
                              'DryDep_HOBr            ', 'GIGCchem',
                              'DryDep_HBr             ', 'GIGCchem',
                              'DryDep_BrNO3           ', 'GIGCchem',
                              'DryDep_ISOPND          ', 'GIGCchem',
                              'DryDep_ISOPNB          ', 'GIGCchem',
                              'DryDep_PROPNN          ', 'GIGCchem',
                              'DryDep_HAC             ', 'GIGCchem',
                              'DryDep_GLYC            ', 'GIGCchem',
                              'DryDep_MVKN            ', 'GIGCchem',
                              'DryDep_MACRN           ', 'GIGCchem',
                              'DryDep_MAP             ', 'GIGCchem',
                              'DryDep_NO2             ', 'GIGCchem',
                              'DryDep_MTPA            ', 'GIGCchem',
                              'DryDep_LIMO            ', 'GIGCchem',
                              'DryDep_MTPO            ', 'GIGCchem',
                              'DryDep_SOAS            ', 'GIGCchem',
                              'DryDep_EOH             ', 'GIGCchem',
                              'DryDep_MGLY            ', 'GIGCchem',
                              'DryDep_GLYX            ', 'GIGCchem',
                              'DryDep_ACTA            ', 'GIGCchem',
                              'DryDep_HPALD           ', 'GIGCchem',
                              'DryDep_DHDN            ', 'GIGCchem',
                              'DryDep_ETHLN           ', 'GIGCchem',
                              'DryDep_HCOOH           ', 'GIGCchem',
                              'DryDep_IEPOXA          ', 'GIGCchem',
                              'DryDep_IEPOXB          ', 'GIGCchem',
                              'DryDep_IEPOXD          ', 'GIGCchem',
                              'DryDep_ISN1            ', 'GIGCchem',
                              'DryDep_RIPA            ', 'GIGCchem',
                              'DryDep_RIPB            ', 'GIGCchem',
                              'DryDep_RIPD            ', 'GIGCchem',
                              'DryDep_IMAE            ', 'GIGCchem',
                              'DryDep_SOAIE           ', 'GIGCchem',
                              'DryDep_SOAME           ', 'GIGCchem',
                              'DryDep_SOAGX           ', 'GIGCchem',
                              'DryDep_SOAMG           ', 'GIGCchem',
                              'DryDep_LVOC            ', 'GIGCchem',
                              'DryDep_LVOCOA          ', 'GIGCchem',
                              'DryDep_ISN1OG          ', 'GIGCchem',
                              'DryDep_ISN1OA          ', 'GIGCchem',
                              'DryDep_MONITS          ', 'GIGCchem',
                              'DryDep_MONITU          ', 'GIGCchem',
                              'DryDep_HONIT           ', 'GIGCchem',
                              'DryDep_IONITA          ', 'GIGCchem',
                              'DryDep_MONITA          ', 'GIGCchem',
                              'DryDep_INDIOL          ', 'GIGCchem',
                              'DryDep_IPMN            ', 'GIGCchem',
                              'DryDep_HC187           ', 'GIGCchem',
                              'DryDep_HCl             ', 'GIGCchem',
                              'DryDep_HOCl            ', 'GIGCchem',
                              'DryDep_ClNO3           ', 'GIGCchem',
                              'DryDep_BrSALA          ', 'GIGCchem',
                              'DryDep_BrSALC          ', 'GIGCchem',
                              'DryDep_HOI             ', 'GIGCchem',
                              'DryDep_I2              ', 'GIGCchem',
                              'DryDep_IBr             ', 'GIGCchem',
                              'DryDep_ICl             ', 'GIGCchem',
                              'DryDep_HI              ', 'GIGCchem',
                              'DryDep_IONO            ', 'GIGCchem',
                              'DryDep_IONO2           ', 'GIGCchem',
                              'DryDep_I2O2            ', 'GIGCchem',
                              'DryDep_I2O3            ', 'GIGCchem',
                              'DryDep_I2O4            ', 'GIGCchem',
                              'DryDep_ISALA           ', 'GIGCchem',
                              'DryDep_ISALC           ', 'GIGCchem',
                              'DryDep_AERI            ', 'GIGCchem',
                              'DryDep_pFe             ', 'GIGCchem',
::
#==============================================================================
# %%%%% THE JValues COLLECTION %%%%%
#
# Photolysis rates (from the FAST-JX photolysis module)
#
# Available for all full-chemistry simulations
#==============================================================================
  JValues.template:           '%y4%m2%d2_%h2%n2z.nc4',
  JValues.format:             'CFIO',
  JValues.frequency:          010000
  JValues.duration:           010000
  JValues.mode:               'time-averaged'
  JValues.fields:             'Jval_O3O3P              ', 'GIGCchem',
                              'Jval_O3O1D              ', 'GIGCchem',
                              'Jval_O2                 ', 'GIGCchem',
                              'Jval_INPN               ', 'GIGCchem',
                              'Jval_MRP                ', 'GIGCchem',
                              'Jval_MAOP               ', 'GIGCchem',
                              'Jval_ISNP               ', 'GIGCchem',
                              'Jval_ATOOH              ', 'GIGCchem',
                              'Jval_VRP                ', 'GIGCchem',
                              'Jval_IAP                ', 'GIGCchem',
                              'Jval_R4P                ', 'GIGCchem',
                              'Jval_PIP                ', 'GIGCchem',
                              'Jval_PRPN               ', 'GIGCchem',
                              'Jval_PP                 ', 'GIGCchem',
                              'Jval_RP                 ', 'GIGCchem',
                              'Jval_RB3P               ', 'GIGCchem',
                              'Jval_RA3P               ', 'GIGCchem',
                              'Jval_ETP                ', 'GIGCchem',
                              'Jval_I2O4               ', 'GIGCchem',
                              'Jval_I2O3               ', 'GIGCchem',
                              'Jval_I2O2               ', 'GIGCchem',
                              'Jval_IONO2              ', 'GIGCchem',
                              'Jval_IONO               ', 'GIGCchem',
                              'Jval_INO                ', 'GIGCchem',
                              'Jval_OIO                ', 'GIGCchem',
                              'Jval_IO                 ', 'GIGCchem',
                              'Jval_ICl                ', 'GIGCchem',
                              'Jval_IBr                ', 'GIGCchem',
                              'Jval_I2                 ', 'GIGCchem',
                              'Jval_HOI                ', 'GIGCchem',
                              'Jval_CH2IBr             ', 'GIGCchem',
                              'Jval_CH2ICl             ', 'GIGCchem',
                              'Jval_CH2I2              ', 'GIGCchem',
                              'Jval_CH3I               ', 'GIGCchem',
                              'Jval_CH2Cl2             ', 'GIGCchem',
                              'Jval_CHCl3              ', 'GIGCchem',
                              'Jval_Cl2O2              ', 'GIGCchem',
                              'Jval_Cl2                ', 'GIGCchem',
                              'Jval_OClO               ', 'GIGCchem',
                              'Jval_ClOO               ', 'GIGCchem',
                              'Jval_ClNO2              ', 'GIGCchem',
                              'Jval_ClNO3              ', 'GIGCchem',
                              'Jval_HOCl               ', 'GIGCchem',
                              'Jval_ClO                ', 'GIGCchem',
                              'Jval_H2402              ', 'GIGCchem',
                              'Jval_H1301              ', 'GIGCchem',
                              'Jval_H1211              ', 'GIGCchem',
                              'Jval_HCFC22             ', 'GIGCchem',
                              'Jval_CFC12              ', 'GIGCchem',
                              'Jval_CFC11              ', 'GIGCchem',
                              'Jval_HCFC142B           ', 'GIGCchem',
                              'Jval_HCFC141B           ', 'GIGCchem',
                              'Jval_HCFC123            ', 'GIGCchem',
                              'Jval_CFC115             ', 'GIGCchem',
                              'Jval_CFC114             ', 'GIGCchem',
                              'Jval_CFC113             ', 'GIGCchem',
                              'Jval_CH3CCl3            ', 'GIGCchem',
                              'Jval_CH3Cl              ', 'GIGCchem',
                              'Jval_CCl4               ', 'GIGCchem',
                              'Jval_BrCl               ', 'GIGCchem',
                              'Jval_OCS                ', 'GIGCchem',
                              'Jval_N2O                ', 'GIGCchem',
                              'Jval_IPMN               ', 'GIGCchem',
                              'Jval_HONIT              ', 'GIGCchem',
                              'Jval_MONITU             ', 'GIGCchem',
                              'Jval_MONITS             ', 'GIGCchem',
                              'Jval_RIPD               ', 'GIGCchem',
                              'Jval_RIPB               ', 'GIGCchem',
                              'Jval_RIPA               ', 'GIGCchem',
                              'Jval_ISN1               ', 'GIGCchem',
                              'Jval_ETHLN              ', 'GIGCchem',
                              'Jval_DHDC               ', 'GIGCchem',
                              'Jval_HPALD              ', 'GIGCchem',
                              'Jval_GLYX               ', 'GIGCchem',
                              'Jval_MGLY               ', 'GIGCchem',
                              'Jval_HNO2               ', 'GIGCchem',
                              'Jval_NO3                ', 'GIGCchem',
                              'Jval_NO2                ', 'GIGCchem',
                              'Jval_MAP                ', 'GIGCchem',
                              'Jval_MACRN              ', 'GIGCchem',
                              'Jval_MVKN               ', 'GIGCchem',
                              'Jval_GLYC               ', 'GIGCchem',
                              'Jval_HAC                ', 'GIGCchem',
                              'Jval_PROPNN             ', 'GIGCchem',
                              'Jval_ISOPNB             ', 'GIGCchem',
                              'Jval_ISOPND             ', 'GIGCchem',
                              'Jval_MPN                ', 'GIGCchem',
                              'Jval_CH3Br              ', 'GIGCchem',
                              'Jval_CH2Br2             ', 'GIGCchem',
                              'Jval_CHBr3              ', 'GIGCchem',
                              'Jval_BrNO3              ', 'GIGCchem',
                              'Jval_BrNO2              ', 'GIGCchem',
                              'Jval_HOBr               ', 'GIGCchem',
                              'Jval_BrO                ', 'GIGCchem',
                              'Jval_Br2                ', 'GIGCchem',
                              'Jval_SO4                ', 'GIGCchem',
                              'Jval_MP                 ', 'GIGCchem',
                              'Jval_HNO4               ', 'GIGCchem',
                              'Jval_N2O5               ', 'GIGCchem',
                              'Jval_CH2O               ', 'GIGCchem',
                              'Jval_R4N2               ', 'GIGCchem',
                              'Jval_MACR               ', 'GIGCchem',
                              'Jval_MVK                ', 'GIGCchem',
                              'Jval_RCHO               ', 'GIGCchem',
                              'Jval_ALD2               ', 'GIGCchem',
                              'Jval_MEK                ', 'GIGCchem',
                              'Jval_ACET               ', 'GIGCchem',
                              'Jval_H2O2               ', 'GIGCchem',
                              'Jval_HNO3               ', 'GIGCchem',
                              'Jval_PAN                ', 'GIGCchem',
                              'Jval_O3                 ', 'GIGCchem',
                              'Jval_NO                 ', 'GIGCchem',
::
#==============================================================================
# %%%%% THE LevelEdgeDiags COLLECTION %%%%%
#
# Diagnostics that are defined on grid box level edges
#
# Available for all simulations
#==============================================================================
  LevelEdgeDiags.template:    '%y4%m2%d2_%h2%n2z.nc4',
  LevelEdgeDiags.format:      'CFIO',
  LevelEdgeDiags.frequency:   010000
  LevelEdgeDiags.duration:    010000
  LevelEdgeDiags.mode:        'time-averaged'
  LevelEdgeDiags.fields:      'Met_CMFMC                     ', 'GIGCchem',
                              'Met_PEDGE                     ', 'GIGCchem',
                              'Met_PEDGEDRY                  ', 'GIGCchem',
                              'Met_PFICU                     ', 'GIGCchem',
                              'Met_PFILSAN                   ', 'GIGCchem',
                              'Met_PFLCU                     ', 'GIGCchem',
                              'Met_PFLLSAN                   ', 'GIGCchem',
::
#==============================================================================
# %%%%% THE ProdLoss COLLECTION %%%%%
#
# Chemical production and loss rates
#
# Available for full-chemistry, aerosol-only, tagO3, and tagCO simulations
#==============================================================================
  ProdLoss.template:          '%y4%m2%d2_%h2%n2z.nc4',
  ProdLoss.format:            'CFIO',
  ProdLoss.frequency:         010000
  ProdLoss.duration:          010000
  ProdLoss.mode:              'time-averaged'
  ProdLoss.fields:            'Prod_SO4                   ', 'GIGCchem', 
                              'Prod_CO                    ', 'GIGCchem', 
                              'Prod_Ox                    ', 'GIGCchem', 
                              'Prod_H2O2                  ', 'GIGCchem', 
                              'ProdBCPIfromBCPO           ', 'GIGCchem', 
                              'ProdOCPIfromOCPO           ', 'GIGCchem',
                              'ProdSO4fromH2O2inCloud     ', 'GIGCchem',
#                              'ProdSO4fromO2inCloudMetal ', 'GIGCchem',
                              'ProdSO4fromO3inCloud       ', 'GIGCchem',
                              'ProdSO4fromO3inSeaSalt     ', 'GIGCchem',
                              'ProdSO4fromHOBrInCloud     ', 'GIGCchem',
                              'ProdSO4fromSRO3            ', 'GIGCchem',
                              'ProdSO4fromSRHOBr          ', 'GIGCchem',
                              'ProdSO4fromO3s             ', 'GIGCchem',
                              'Loss_CO                    ', 'GIGCchem',
                              'Loss_Ox                    ', 'GIGCchem',
                              'LossHNO3onSeaSalt          ', 'GIGCchem',
::
#==============================================================================
# %%%%% THE SpeciesConc COLLECTION %%%%%
#
# GEOS-Chem species concentrations (default = advected species)
#
# Available for all simulations
#==============================================================================
  SpeciesConc.template:   '%y4%m2%d2_%h2%n2z.nc4',
  SpeciesConc.format:     'CFIO',
  SpeciesConc.frequency:  010000
  SpeciesConc.duration:   010000
  SpeciesConc.mode:       'time-averaged'
  SpeciesConc.fields:     'SpeciesConc_NO         ', 'GIGCchem',
                          'SpeciesConc_O3         ', 'GIGCchem',
                          'SpeciesConc_PAN        ', 'GIGCchem',
                          'SpeciesConc_CO         ', 'GIGCchem',
                          'SpeciesConc_ALK4       ', 'GIGCchem',
                          'SpeciesConc_ISOP       ', 'GIGCchem',
                          'SpeciesConc_HNO3       ', 'GIGCchem',
                          'SpeciesConc_H2O2       ', 'GIGCchem',
                          'SpeciesConc_ACET       ', 'GIGCchem',
                          'SpeciesConc_MEK        ', 'GIGCchem',
                          'SpeciesConc_ALD2       ', 'GIGCchem',
                          'SpeciesConc_RCHO       ', 'GIGCchem',
                          'SpeciesConc_MVK        ', 'GIGCchem',
                          'SpeciesConc_MACR       ', 'GIGCchem',
                          'SpeciesConc_NPMN       ', 'GIGCchem',
                          'SpeciesConc_PPN        ', 'GIGCchem',
                          'SpeciesConc_R4N2       ', 'GIGCchem',
                          'SpeciesConc_PRPE       ', 'GIGCchem',
                          'SpeciesConc_C3H8       ', 'GIGCchem',
                          'SpeciesConc_CH2O       ', 'GIGCchem',
                          'SpeciesConc_C2H6       ', 'GIGCchem',
                          'SpeciesConc_N2O5       ', 'GIGCchem',
                          'SpeciesConc_HNO4       ', 'GIGCchem',
                          'SpeciesConc_MP         ', 'GIGCchem',
                          'SpeciesConc_DMS        ', 'GIGCchem',
                          'SpeciesConc_SO2        ', 'GIGCchem',
                          'SpeciesConc_SO4        ', 'GIGCchem',
                          'SpeciesConc_SO4s       ', 'GIGCchem',
                          'SpeciesConc_MSA        ', 'GIGCchem',
                          'SpeciesConc_NH3        ', 'GIGCchem',
                          'SpeciesConc_NH4        ', 'GIGCchem',
                          'SpeciesConc_NIT        ', 'GIGCchem',
                          'SpeciesConc_NITs       ', 'GIGCchem',
                          'SpeciesConc_BCPI       ', 'GIGCchem',
                          'SpeciesConc_OCPI       ', 'GIGCchem',
                          'SpeciesConc_BCPO       ', 'GIGCchem',
                          'SpeciesConc_OCPO       ', 'GIGCchem',
                          'SpeciesConc_DST1       ', 'GIGCchem',
                          'SpeciesConc_DST2       ', 'GIGCchem',
                          'SpeciesConc_DST3       ', 'GIGCchem',
                          'SpeciesConc_DST4       ', 'GIGCchem',
                          'SpeciesConc_SALA       ', 'GIGCchem',
                          'SpeciesConc_SALC       ', 'GIGCchem',
                          'SpeciesConc_Br2        ', 'GIGCchem',
                          'SpeciesConc_Br         ', 'GIGCchem',
                          'SpeciesConc_BrO        ', 'GIGCchem',
                          'SpeciesConc_HOBr       ', 'GIGCchem',
                          'SpeciesConc_HBr        ', 'GIGCchem',
                          'SpeciesConc_BrNO2      ', 'GIGCchem',
                          'SpeciesConc_BrNO3      ', 'GIGCchem',
                          'SpeciesConc_CHBr3      ', 'GIGCchem',
                          'SpeciesConc_CH2Br2     ', 'GIGCchem',
                          'SpeciesConc_CH3Br      ', 'GIGCchem',
                          'SpeciesConc_MPN        ', 'GIGCchem',
                          'SpeciesConc_ISOPND     ', 'GIGCchem',
                          'SpeciesConc_ISOPNB     ', 'GIGCchem',
                          'SpeciesConc_MOBA       ', 'GIGCchem',
                          'SpeciesConc_PROPNN     ', 'GIGCchem',
                          'SpeciesConc_HAC        ', 'GIGCchem',
                          'SpeciesConc_GLYC       ', 'GIGCchem',
                          'SpeciesConc_MVKN       ', 'GIGCchem',
                          'SpeciesConc_MACRN      ', 'GIGCchem',
                          'SpeciesConc_MAP        ', 'GIGCchem',
                          'SpeciesConc_NO2        ', 'GIGCchem',
                          'SpeciesConc_NO3        ', 'GIGCchem',
                          'SpeciesConc_HNO2       ', 'GIGCchem',
                          'SpeciesConc_BENZ       ', 'GIGCchem',
                          'SpeciesConc_TOLU       ', 'GIGCchem',
                          'SpeciesConc_XYLE       ', 'GIGCchem',
                          'SpeciesConc_MTPA       ', 'GIGCchem',
                          'SpeciesConc_LIMO       ', 'GIGCchem',
                          'SpeciesConc_MTPO       ', 'GIGCchem',
                          'SpeciesConc_SOAP       ', 'GIGCchem',
                          'SpeciesConc_SOAS       ', 'GIGCchem',
                          'SpeciesConc_EOH        ', 'GIGCchem',
                          'SpeciesConc_MGLY       ', 'GIGCchem',
                          'SpeciesConc_GLYX       ', 'GIGCchem',
                          'SpeciesConc_ACTA       ', 'GIGCchem',
                          'SpeciesConc_HPALD      ', 'GIGCchem',
                          'SpeciesConc_DHDN       ', 'GIGCchem',
                          'SpeciesConc_ETHLN      ', 'GIGCchem',
                          'SpeciesConc_HCOOH      ', 'GIGCchem',
                          'SpeciesConc_IEPOXA     ', 'GIGCchem',
                          'SpeciesConc_IEPOXB     ', 'GIGCchem',
                          'SpeciesConc_IEPOXD     ', 'GIGCchem',
                          'SpeciesConc_ISN1       ', 'GIGCchem',
                          'SpeciesConc_RIPA       ', 'GIGCchem',
                          'SpeciesConc_RIPB       ', 'GIGCchem',
                          'SpeciesConc_RIPD       ', 'GIGCchem',
                          'SpeciesConc_IMAE       ', 'GIGCchem',
                          'SpeciesConc_SOAIE      ', 'GIGCchem',
                          'SpeciesConc_SOAME      ', 'GIGCchem',
                          'SpeciesConc_SOAGX      ', 'GIGCchem',
                          'SpeciesConc_SOAMG      ', 'GIGCchem',
                          'SpeciesConc_LVOC       ', 'GIGCchem',
                          'SpeciesConc_LVOCOA     ', 'GIGCchem',
                          'SpeciesConc_ISN1OG     ', 'GIGCchem',
                          'SpeciesConc_ISN1OA     ', 'GIGCchem',
                          'SpeciesConc_MONITS     ', 'GIGCchem',
                          'SpeciesConc_MONITU     ', 'GIGCchem',
                          'SpeciesConc_HONIT      ', 'GIGCchem',
                          'SpeciesConc_IONITA     ', 'GIGCchem',
                          'SpeciesConc_MONITA     ', 'GIGCchem',
                          'SpeciesConc_INDIOL     ', 'GIGCchem',
                          'SpeciesConc_IPMN       ', 'GIGCchem',
                          'SpeciesConc_HC187      ', 'GIGCchem',
                          'SpeciesConc_N2O        ', 'GIGCchem',
                          'SpeciesConc_OCS        ', 'GIGCchem',
                          'SpeciesConc_CH4        ', 'GIGCchem',
                          'SpeciesConc_BrCl       ', 'GIGCchem',
                          'SpeciesConc_HCl        ', 'GIGCchem',
                          'SpeciesConc_CCl4       ', 'GIGCchem',
                          'SpeciesConc_CH3Cl      ', 'GIGCchem',
                          'SpeciesConc_CH3CCl3    ', 'GIGCchem',
                          'SpeciesConc_CFC113     ', 'GIGCchem',
                          'SpeciesConc_CFC114     ', 'GIGCchem',
                          'SpeciesConc_CFC115     ', 'GIGCchem',
                          'SpeciesConc_HCFC123    ', 'GIGCchem',
                          'SpeciesConc_HCFC141b   ', 'GIGCchem',
                          'SpeciesConc_HCFC142b   ', 'GIGCchem',
                          'SpeciesConc_CFC11      ', 'GIGCchem',
                          'SpeciesConc_CFC12      ', 'GIGCchem',
                          'SpeciesConc_HCFC22     ', 'GIGCchem',
                          'SpeciesConc_H1211      ', 'GIGCchem',
                          'SpeciesConc_H1301      ', 'GIGCchem',
                          'SpeciesConc_H2402      ', 'GIGCchem',
                          'SpeciesConc_Cl         ', 'GIGCchem',
                          'SpeciesConc_ClO        ', 'GIGCchem',
                          'SpeciesConc_HOCl       ', 'GIGCchem',
                          'SpeciesConc_ClNO3      ', 'GIGCchem',
                          'SpeciesConc_ClNO2      ', 'GIGCchem',
                          'SpeciesConc_ClOO       ', 'GIGCchem',
                          'SpeciesConc_OClO       ', 'GIGCchem',
                          'SpeciesConc_Cl2        ', 'GIGCchem',
                          'SpeciesConc_Cl2O2      ', 'GIGCchem',
                          'SpeciesConc_H2O        ', 'GIGCchem',
                          'SpeciesConc_BrSALA     ', 'GIGCchem',
                          'SpeciesConc_BrSALC     ', 'GIGCchem',
                          'SpeciesConc_CHCl3      ', 'GIGCchem',
                          'SpeciesConc_CH2Cl2     ', 'GIGCchem',
                          'SpeciesConc_CH3I       ', 'GIGCchem',
                          'SpeciesConc_CH2I2      ', 'GIGCchem',
                          'SpeciesConc_CH2ICl     ', 'GIGCchem',
                          'SpeciesConc_CH2IBr     ', 'GIGCchem',
                          'SpeciesConc_HOI        ', 'GIGCchem',
                          'SpeciesConc_I2         ', 'GIGCchem',
                          'SpeciesConc_IBr        ', 'GIGCchem',
                          'SpeciesConc_ICl        ', 'GIGCchem',
                          'SpeciesConc_I          ', 'GIGCchem',
                          'SpeciesConc_IO         ', 'GIGCchem',
                          'SpeciesConc_HI         ', 'GIGCchem',
                          'SpeciesConc_OIO        ', 'GIGCchem',
                          'SpeciesConc_INO        ', 'GIGCchem',
                          'SpeciesConc_IONO       ', 'GIGCchem',
                          'SpeciesConc_IONO2      ', 'GIGCchem',
                          'SpeciesConc_I2O2       ', 'GIGCchem',
                          'SpeciesConc_I2O3       ', 'GIGCchem',
                          'SpeciesConc_I2O4       ', 'GIGCchem',
                          'SpeciesConc_ISALA      ', 'GIGCchem',
                          'SpeciesConc_ISALC      ', 'GIGCchem',
                          'SpeciesConc_AERI       ', 'GIGCchem', 
                          'SpeciesConc_pFe        ', 'GIGCchem', 
                          'SpeciesConc_OH         ', 'GIGCchem', 
                          'SpeciesConc_INPN       ', 'GIGCchem',
::
#==============================================================================
# %%%%% THE StateChm COLLECTION %%%%%
#
# Fields of the State_Chm object (see also Aerosols collection)
#
# Available for full-chemistry and aerosols-only simulations
#==============================================================================
  StateChm.template:          '%y4%m2%d2_%h2%n2z.nc4',
  StateChm.format:            'CFIO',
  StateChm.frequency:         010000
  StateChm.duration:          010000
  StateChm.mode:              'time-averaged'
  StateChm.fields:            'Chem_phSav                    ', 'GIGCchem',  
                              'Chem_HplusSav                 ', 'GIGCchem',  
                              'Chem_WaterSav                 ', 'GIGCchem',  
                              'Chem_SulRatSav                ', 'GIGCchem',  
                              'Chem_NaRatSav                 ', 'GIGCchem',  
                              'Chem_AcidPurSav               ', 'GIGCchem',  
                              'Chem_BiSulSav                 ', 'GIGCchem',
                              'Chem_pHCloud                  ', 'GIGCchem',
                              'Chem_isCloud                  ', 'GIGCchem',
                              'Chem_SSAlkAccum               ', 'GIGCchem',
                              'Chem_SSAlkCoarse              ', 'GIGCchem',
                              'Chem_HSO3AQ                   ', 'GIGCchem',
                              'Chem_SO3AQ                    ', 'GIGCchem',
                              'Chem_fupdateHOBr              ', 'GIGCchem',
::
#==============================================================================
# %%%%% The StateMet time-averaged COLLECTION %%%%%
#
# Fields of the State_Met object (also see the LevelEdgeDiags collection)
#
# Available for all simulations
#==============================================================================
  StateMet_avg.template:      '%y4%m2%d2_%h2%n2z.nc4',
  StateMet_avg.format:        'CFIO',
[...]
                              #'Met_TS              ', 'GIGCchem',
                              #'Met_TSKIN           ', 'GIGCchem',
                              #'Met_TV              ', 'GIGCchem',
                              #'Met_U               ', 'GIGCchem',
                              #'Met_U10M            ', 'GIGCchem',
                              #'Met_UPDVVEL         ', 'GIGCchem',
                              #'Met_USTAR           ', 'GIGCchem',
                              #'Met_UVALBEDO        ', 'GIGCchem',
                              #'Met_V               ', 'GIGCchem',
                              #'Met_V10M            ', 'GIGCchem',
                              #'Met_Z0              ', 'GIGCchem',
::
#==============================================================================
# %%%%% THE WetLossConv COLLECTION %%%%%
#
# Loss of soluble species in convective updrafts
#
# Available for all simulations that have soluble species
#==============================================================================
  WetLossConv.template:       '%y4%m2%d2_%h2%n2z.nc4',
  WetLossConv.format:         'CFIO',
  WetLossConv.frequency:      010000
  WetLossConv.duration:       010000
  WetLossConv.mode:           'time-averaged'
  WetLossConv.fields:         'WetLossConv_HNO3          ', 'GIGCchem',
                              'WetLossConv_H2O2          ', 'GIGCchem',
                              'WetLossConv_ALD2          ', 'GIGCchem',
                              'WetLossConv_CH2O          ', 'GIGCchem',
                              'WetLossConv_MP            ', 'GIGCchem',
                              'WetLossConv_SO2           ', 'GIGCchem',
                              'WetLossConv_SO4           ', 'GIGCchem',
                              'WetLossConv_SO4s          ', 'GIGCchem',
                              'WetLossConv_MSA           ', 'GIGCchem',
                              'WetLossConv_NH3           ', 'GIGCchem',
                              'WetLossConv_NH4           ', 'GIGCchem',
                              'WetLossConv_NIT           ', 'GIGCchem',
                              'WetLossConv_NITs          ', 'GIGCchem',
                              'WetLossConv_BCPI          ', 'GIGCchem',
                              'WetLossConv_OCPI          ', 'GIGCchem',
                              'WetLossConv_BCPO          ', 'GIGCchem',
                              'WetLossConv_OCPO          ', 'GIGCchem',
                              'WetLossConv_DST1          ', 'GIGCchem',
                              'WetLossConv_DST2          ', 'GIGCchem',
                              'WetLossConv_DST3          ', 'GIGCchem',
                              'WetLossConv_DST4          ', 'GIGCchem',
                              'WetLossConv_SALA          ', 'GIGCchem',
                              'WetLossConv_SALC          ', 'GIGCchem',
                              'WetLossConv_Br2           ', 'GIGCchem',
                              'WetLossConv_HOBr          ', 'GIGCchem',
                              'WetLossConv_HBr           ', 'GIGCchem',
                              'WetLossConv_ISOPND        ', 'GIGCchem',
                              'WetLossConv_ISOPNB        ', 'GIGCchem',
                              'WetLossConv_MOBA          ', 'GIGCchem',
                              'WetLossConv_PROPNN        ', 'GIGCchem',
                              'WetLossConv_HAC           ', 'GIGCchem',
                              'WetLossConv_GLYC          ', 'GIGCchem',
                              'WetLossConv_MVKN          ', 'GIGCchem',
                              'WetLossConv_MACRN         ', 'GIGCchem',
                              'WetLossConv_MAP           ', 'GIGCchem',
                              'WetLossConv_MTPA          ', 'GIGCchem',
                              'WetLossConv_LIMO          ', 'GIGCchem',
                              'WetLossConv_MTPO          ', 'GIGCchem',
                              'WetLossConv_SOAS          ', 'GIGCchem',
                              'WetLossConv_EOH           ', 'GIGCchem',
                              'WetLossConv_MGLY          ', 'GIGCchem',
                              'WetLossConv_GLYX          ', 'GIGCchem',
                              'WetLossConv_ACTA          ', 'GIGCchem',
                              'WetLossConv_DHDN          ', 'GIGCchem',
                              'WetLossConv_ETHLN         ', 'GIGCchem',
                              'WetLossConv_HCOOH         ', 'GIGCchem',
                              'WetLossConv_IEPOXA        ', 'GIGCchem',
                              'WetLossConv_IEPOXB        ', 'GIGCchem',
                              'WetLossConv_IEPOXD        ', 'GIGCchem',
                              'WetLossConv_ISN1          ', 'GIGCchem',
                              'WetLossConv_RIPA          ', 'GIGCchem',
                              'WetLossConv_RIPB          ', 'GIGCchem',
                              'WetLossConv_RIPD          ', 'GIGCchem',
                              'WetLossConv_IMAE          ', 'GIGCchem',
                              'WetLossConv_SOAIE         ', 'GIGCchem',
                              'WetLossConv_SOAME         ', 'GIGCchem',
                              'WetLossConv_SOAGX         ', 'GIGCchem',
                              'WetLossConv_SOAMG         ', 'GIGCchem',
                              'WetLossConv_LVOC          ', 'GIGCchem',
                              'WetLossConv_LVOCOA        ', 'GIGCchem',
                              'WetLossConv_ISN1OG        ', 'GIGCchem',
                              'WetLossConv_ISN1OA        ', 'GIGCchem',
                              'WetLossConv_MONITS        ', 'GIGCchem',
                              'WetLossConv_MONITU        ', 'GIGCchem',
                              'WetLossConv_HONIT         ', 'GIGCchem',
                              'WetLossConv_IONITA        ', 'GIGCchem',
                              'WetLossConv_MONITA        ', 'GIGCchem',
                              'WetLossConv_INDIOL        ', 'GIGCchem',
                              'WetLossConv_HCl           ', 'GIGCchem',
                              'WetLossConv_HOCl          ', 'GIGCchem',
                              'WetLossConv_BrSALA        ', 'GIGCchem',
                              'WetLossConv_BrSALC        ', 'GIGCchem',
                              'WetLossConv_HOI           ', 'GIGCchem',
                              'WetLossConv_I2            ', 'GIGCchem',
                              'WetLossConv_IBr           ', 'GIGCchem',
                              'WetLossConv_ICl           ', 'GIGCchem',
                              'WetLossConv_HI            ', 'GIGCchem',
                              'WetLossConv_IONO          ', 'GIGCchem',
                              'WetLossConv_IONO2         ', 'GIGCchem',
                              'WetLossConv_I2O2          ', 'GIGCchem',
                              'WetLossConv_I2O3          ', 'GIGCchem',
                              'WetLossConv_I2O4          ', 'GIGCchem',
                              'WetLossConv_ISALA         ', 'GIGCchem',
                              'WetLossConv_ISALC         ', 'GIGCchem',   
                              'WetLossConv_AERI          ', 'GIGCchem',   
                              'WetLossConv_pFe           ', 'GIGCchem',   
                              'WetLossConvFrac_HNO3      ', 'GIGCchem',
                              'WetLossConvFrac_H2O2      ', 'GIGCchem',
                              'WetLossConvFrac_ALD2      ', 'GIGCchem',
                              'WetLossConvFrac_CH2O      ', 'GIGCchem',
                              'WetLossConvFrac_MP        ', 'GIGCchem',
                              'WetLossConvFrac_SO2       ', 'GIGCchem',
                              'WetLossConvFrac_SO4       ', 'GIGCchem',
                              'WetLossConvFrac_SO4s      ', 'GIGCchem',
                              'WetLossConvFrac_MSA       ', 'GIGCchem',
                              'WetLossConvFrac_NH3       ', 'GIGCchem',
                              'WetLossConvFrac_NH4       ', 'GIGCchem',
                              'WetLossConvFrac_NIT       ', 'GIGCchem',
                              'WetLossConvFrac_NITs      ', 'GIGCchem',
                              'WetLossConvFrac_BCPI      ', 'GIGCchem',
                              'WetLossConvFrac_OCPI      ', 'GIGCchem',
                              'WetLossConvFrac_BCPO      ', 'GIGCchem',
                              'WetLossConvFrac_OCPO      ', 'GIGCchem',
                              'WetLossConvFrac_DST1      ', 'GIGCchem',
                              'WetLossConvFrac_DST2      ', 'GIGCchem',
                              'WetLossConvFrac_DST3      ', 'GIGCchem',
                              'WetLossConvFrac_DST4      ', 'GIGCchem',
                              'WetLossConvFrac_SALA      ', 'GIGCchem',
                              'WetLossConvFrac_SALC      ', 'GIGCchem',
                              'WetLossConvFrac_Br2       ', 'GIGCchem',
                              'WetLossConvFrac_HOBr      ', 'GIGCchem',
                              'WetLossConvFrac_HBr       ', 'GIGCchem',
                              'WetLossConvFrac_ISOPND    ', 'GIGCchem',
                              'WetLossConvFrac_ISOPNB    ', 'GIGCchem',
                              'WetLossConvFrac_MOBA      ', 'GIGCchem',
                              'WetLossConvFrac_PROPNN    ', 'GIGCchem',
                              'WetLossConvFrac_HAC       ', 'GIGCchem',
                              'WetLossConvFrac_GLYC      ', 'GIGCchem',
                              'WetLossConvFrac_MVKN      ', 'GIGCchem',
                              'WetLossConvFrac_MACRN     ', 'GIGCchem',
                              'WetLossConvFrac_MAP       ', 'GIGCchem',
                              'WetLossConvFrac_MTPA      ', 'GIGCchem',
                              'WetLossConvFrac_LIMO      ', 'GIGCchem',
                              'WetLossConvFrac_MTPO      ', 'GIGCchem',
                              'WetLossConvFrac_SOAS      ', 'GIGCchem',
                              'WetLossConvFrac_EOH       ', 'GIGCchem',
                              'WetLossConvFrac_MGLY      ', 'GIGCchem',
                              'WetLossConvFrac_GLYX      ', 'GIGCchem',
                              'WetLossConvFrac_ACTA      ', 'GIGCchem',
                              'WetLossConvFrac_DHDN      ', 'GIGCchem',
                              'WetLossConvFrac_ETHLN     ', 'GIGCchem',
                              'WetLossConvFrac_HCOOH     ', 'GIGCchem',
                              'WetLossConvFrac_IEPOXA    ', 'GIGCchem',
                              'WetLossConvFrac_IEPOXB    ', 'GIGCchem',
                              'WetLossConvFrac_IEPOXD    ', 'GIGCchem',
                              'WetLossConvFrac_ISN1      ', 'GIGCchem',
                              'WetLossConvFrac_RIPA      ', 'GIGCchem',
                              'WetLossConvFrac_RIPB      ', 'GIGCchem',
                              'WetLossConvFrac_RIPD      ', 'GIGCchem',
                              'WetLossConvFrac_IMAE      ', 'GIGCchem',
                              'WetLossConvFrac_SOAIE     ', 'GIGCchem',
                              'WetLossConvFrac_SOAME     ', 'GIGCchem',
                              'WetLossConvFrac_SOAGX     ', 'GIGCchem',
                              'WetLossConvFrac_SOAMG     ', 'GIGCchem',
                              'WetLossConvFrac_LVOC      ', 'GIGCchem',
                              'WetLossConvFrac_LVOCOA    ', 'GIGCchem',
                              'WetLossConvFrac_ISN1OG    ', 'GIGCchem',
                              'WetLossConvFrac_ISN1OA    ', 'GIGCchem',
                              'WetLossConvFrac_MONITS    ', 'GIGCchem',
                              'WetLossConvFrac_MONITU    ', 'GIGCchem',
                              'WetLossConvFrac_HONIT     ', 'GIGCchem',
                              'WetLossConvFrac_IONITA    ', 'GIGCchem',
                              'WetLossConvFrac_MONITA    ', 'GIGCchem',
                              'WetLossConvFrac_INDIOL    ', 'GIGCchem',
                              'WetLossConvFrac_HCl       ', 'GIGCchem',
                              'WetLossConvFrac_HOCl      ', 'GIGCchem',
                              'WetLossConvFrac_BrSALA    ', 'GIGCchem',
                              'WetLossConvFrac_BrSALC    ', 'GIGCchem',
                              'WetLossConvFrac_HOI       ', 'GIGCchem',
                              'WetLossConvFrac_I2        ', 'GIGCchem',
                              'WetLossConvFrac_IBr       ', 'GIGCchem',
                              'WetLossConvFrac_ICl       ', 'GIGCchem',
                              'WetLossConvFrac_HI        ', 'GIGCchem',
                              'WetLossConvFrac_IONO      ', 'GIGCchem',
                              'WetLossConvFrac_IONO2     ', 'GIGCchem',
                              'WetLossConvFrac_I2O2      ', 'GIGCchem',
                              'WetLossConvFrac_I2O3      ', 'GIGCchem',
                              'WetLossConvFrac_I2O4      ', 'GIGCchem',
                              'WetLossConvFrac_ISALA     ', 'GIGCchem',
                              'WetLossConvFrac_ISALC     ', 'GIGCchem',   
                              'WetLossConvFrac_AERI      ', 'GIGCchem',   
                              'WetLossConvFrac_pFe       ', 'GIGCchem',   
::
#==============================================================================
# %%%%% THE WetLossLS COLLECTION %%%%%
#
# Loss of soluble species in large-scale wetdep (i.e. rainout and washout)
#
# Available for all simulations that have soluble species
#==============================================================================
# Loss due to rainout and washout (per deposited species)
  WetLossLS.template:         '%y4%m2%d2_%h2%n2z.nc4',
  WetLossLS.format:           'CFIO',
  WetLossLS.frequency:        010000
  WetLossLS.duration:         010000
  WetLossLS.mode:             'time-averaged'
  WetLossLS.fields:           'WetLossLS_HNO3     ', 'GIGCchem',
                              'WetLossLS_H2O2     ', 'GIGCchem',
                              'WetLossLS_ALD2     ', 'GIGCchem',
                              'WetLossLS_CH2O     ', 'GIGCchem',
                              'WetLossLS_MP       ', 'GIGCchem',
                              'WetLossLS_SO2      ', 'GIGCchem',
                              'WetLossLS_SO4      ', 'GIGCchem',
                              'WetLossLS_SO4s     ', 'GIGCchem',
                              'WetLossLS_MSA      ', 'GIGCchem',
                              'WetLossLS_NH3      ', 'GIGCchem',
                              'WetLossLS_NH4      ', 'GIGCchem',
                              'WetLossLS_NIT      ', 'GIGCchem',
                              'WetLossLS_NITs     ', 'GIGCchem',
                              'WetLossLS_BCPI     ', 'GIGCchem',
                              'WetLossLS_OCPI     ', 'GIGCchem',
                              'WetLossLS_BCPO     ', 'GIGCchem',
                              'WetLossLS_OCPO     ', 'GIGCchem',
                              'WetLossLS_DST1     ', 'GIGCchem',
                              'WetLossLS_DST2     ', 'GIGCchem',
                              'WetLossLS_DST3     ', 'GIGCchem',
                              'WetLossLS_DST4     ', 'GIGCchem',
                              'WetLossLS_SALA     ', 'GIGCchem',
                              'WetLossLS_SALC     ', 'GIGCchem',
                              'WetLossLS_Br2      ', 'GIGCchem',
                              'WetLossLS_HOBr     ', 'GIGCchem',
                              'WetLossLS_HBr      ', 'GIGCchem',
                              'WetLossLS_ISOPND   ', 'GIGCchem',
                              'WetLossLS_ISOPNB   ', 'GIGCchem',
                              'WetLossLS_MOBA     ', 'GIGCchem',
                              'WetLossLS_PROPNN   ', 'GIGCchem',
                              'WetLossLS_HAC      ', 'GIGCchem',
                              'WetLossLS_GLYC     ', 'GIGCchem',
                              'WetLossLS_MVKN     ', 'GIGCchem',
                              'WetLossLS_MACRN    ', 'GIGCchem',
                              'WetLossLS_MAP      ', 'GIGCchem',
                              'WetLossLS_MTPA     ', 'GIGCchem',
                              'WetLossLS_LIMO     ', 'GIGCchem',
                              'WetLossLS_MTPO     ', 'GIGCchem',
                              'WetLossLS_SOAS     ', 'GIGCchem',
                              'WetLossLS_EOH      ', 'GIGCchem',
                              'WetLossLS_MGLY     ', 'GIGCchem',
                              'WetLossLS_GLYX     ', 'GIGCchem',
                              'WetLossLS_ACTA     ', 'GIGCchem',
                              'WetLossLS_DHDN     ', 'GIGCchem',
                              'WetLossLS_ETHLN    ', 'GIGCchem',
                              'WetLossLS_HCOOH    ', 'GIGCchem',
                              'WetLossLS_IEPOXA   ', 'GIGCchem',
                              'WetLossLS_IEPOXB   ', 'GIGCchem',
                              'WetLossLS_IEPOXD   ', 'GIGCchem',
                              'WetLossLS_ISN1     ', 'GIGCchem',
                              'WetLossLS_RIPA     ', 'GIGCchem',
                              'WetLossLS_RIPB     ', 'GIGCchem',
                              'WetLossLS_RIPD     ', 'GIGCchem',
                              'WetLossLS_IMAE     ', 'GIGCchem',
                              'WetLossLS_SOAIE    ', 'GIGCchem',
                              'WetLossLS_SOAME    ', 'GIGCchem',
                              'WetLossLS_SOAGX    ', 'GIGCchem',
                              'WetLossLS_SOAMG    ', 'GIGCchem',
                              'WetLossLS_LVOC     ', 'GIGCchem',
                              'WetLossLS_LVOCOA   ', 'GIGCchem',
                              'WetLossLS_ISN1OG   ', 'GIGCchem',
                              'WetLossLS_ISN1OA   ', 'GIGCchem',
                              'WetLossLS_MONITS   ', 'GIGCchem',   
                              'WetLossLS_MONITU   ', 'GIGCchem',   
                              'WetLossLS_HONIT    ', 'GIGCchem',   
                              'WetLossLS_IONITA   ', 'GIGCchem',   
                              'WetLossLS_MONITA   ', 'GIGCchem',   
                              'WetLossLS_INDIOL   ', 'GIGCchem',   
                              'WetLossLS_HCl      ', 'GIGCchem',   
                              'WetLossLS_HOCl     ', 'GIGCchem',   
                              'WetLossLS_BrSALA   ', 'GIGCchem',   
                              'WetLossLS_BrSALC   ', 'GIGCchem',   
                              'WetLossLS_HOI      ', 'GIGCchem',   
                              'WetLossLS_I2       ', 'GIGCchem',   
                              'WetLossLS_IBr      ', 'GIGCchem',   
                              'WetLossLS_ICl      ', 'GIGCchem',   
                              'WetLossLS_HI       ', 'GIGCchem',   
                              'WetLossLS_IONO     ', 'GIGCchem',   
                              'WetLossLS_IONO2    ', 'GIGCchem',   
                              'WetLossLS_I2O2     ', 'GIGCchem',   
                              'WetLossLS_I2O3     ', 'GIGCchem',   
                              'WetLossLS_I2O4     ', 'GIGCchem',   
                              'WetLossLS_ISALA    ', 'GIGCchem',   
                              'WetLossLS_ISALC    ', 'GIGCchem',   
                              'WetLossLS_AERI     ', 'GIGCchem',   
                              'WetLossLS_pFe      ', 'GIGCchem',   
::