EXPID:  OutputDir/GCHP
EXPDSC: GEOS-Chem_devel
CoresPerNode: 6
VERSION: 1

#==============================================================================
# Define output grids different from the native cubed sphere in this section.
# Each diagnostics collection will be output on the native resolution cubed
# sphere grid unless a different grid is configured. A few examples are
# provided below.
#
# To use a grid for a specific collection, include the 'grid_label' field
# in the collection definition. For example,
#
#   SpeciesConc.grid_label:   REGIONAL1x1
#
# If you are outputting on a lat/lon grid, be sure to specify conservative
# regridding. Otherwise regridding will be bi-linear.
#
#   SpeciesConc.conservative: 1
#
#==============================================================================
GRID_LABELS: PE24x144-CF
             PC360x181-DC
             REGIONAL1x1
    ::

    # Example of cubed-sphere grid at c24 resolution
    PE24x144-CF.GRID_TYPE: Cubed-Sphere
    PE24x144-CF.IM_WORLD: 24
    PE24x144-CF.JM_WORLD: 144
    PE24x144-CF.LM: 72

    # Example of lat-lon global grid at 1x1 resolution
    PC360x181-DC.GRID_TYPE: LatLon
    PC360x181-DC.IM_WORLD: 360
    PC360x181-DC.JM_WORLD: 181
    PC360x181-DC.POLE: PC
    PC360x181-DC.DATELINE: DC
    PC360x181-DC.LM: 72

    # Example of lat-lon regional grid at 1x1 resolution
    REGIONAL1x1.GRID_TYPE: LatLon
    REGIONAL1x1.IM_WORLD: 80
    REGIONAL1x1.JM_WORLD: 40
    REGIONAL1x1.POLE: XY
    REGIONAL1x1.DATELINE: XY
    REGIONAL1x1.LON_RANGE:   0 80
    REGIONAL1x1.LAT_RANGE: -30 10
    REGIONAL1x1.LM: 72

#==============================================================================
# %%%%% COLLECTION NAME DECLARATIONS %%%%%
#
# To enable a collection, remove the "#" character in front of its name. The
# Restart collection should always be turned on.
#
# NOTE: These are the "default" collections for GEOS-Chem, but you can create
# your own customized diagnostic collections as well.
#==============================================================================
COLLECTIONS: 'AerosolMass',
             'Aerosols',
             'Budget',
             'CloudConvFlux',
             #'ConcAboveSfc',
             'ConcAfterChem',
             'DryDep',
             'Emissions',
             'JValues',
             'KppDiags',
             'LevelEdgeDiags',
             'ProdLoss',
             'SpeciesConc',
             'StateChm',
             'StateMet_avg',
             'StateMet_inst',
             'WetLossConv',
             'WetLossLS',
::
#==============================================================================
# Define collections
# The rest of this file consists of collection definitions.
# Above collections whose declarations are commented out will be ignored.
# You can skip individual diagnostics by commenting them out.
#
# WARNING: Frequency, duration, and mode will be over-written with
# settings in runConfig.sh. Edit those settings there. Add collections
# as needed to that file as needed or edit in place new collections here.
#
# NOTES:
#    (1) See the GRID_LABELS sections above for details about output grids
#    (2) To output a reduced set of levels, use the levels keyword, e.g.:
#           SpeciesConc.levels: 1 2 3
#
#==============================================================================
# Emissions (see HEMCO_Diagn.rc for additional config settings)
  Emissions.template:     '%y4%m2%d2_%h2%n2z.nc4',
  Emissions.format:       'CFIO',
  Emissions.frequency:    010000
  Emissions.duration:     010000
  Emissions.mode:         'time-averaged'
  Emissions.fields:       'EmisACET_Total       ', 'GIGCchem',
                          'EmisACET_Anthro      ', 'GIGCchem',
                          'EmisACET_BioBurn     ', 'GIGCchem',
                          'EmisACET_Biogenic    ', 'GIGCchem',
                          'EmisACET_Ocean       ', 'GIGCchem',
                          'EmisALD2_Total       ', 'GIGCchem',
                          'EmisALD2_Anthro      ', 'GIGCchem',
                          'EmisALD2_BioBurn     ', 'GIGCchem',
                          'EmisALD2_Biogenic    ', 'GIGCchem',
                          'EmisALD2_Ocean       ', 'GIGCchem',
                          'EmisALD2_PlantDecay  ', 'GIGCchem',
                          'EmisALD2_Ship        ', 'GIGCchem',
                          'EmisALK4_Total       ', 'GIGCchem',
                          'EmisALK4_Aircraft    ', 'GIGCchem',
                          'EmisALK4_Anthro      ', 'GIGCchem',
                          'EmisALK4_BioBurn     ', 'GIGCchem',
                          'EmisALK4_Ship        ', 'GIGCchem',
                          'EmisBCPI_Total       ', 'GIGCchem',
                          'EmisBCPI_Aircraft    ', 'GIGCchem',
                          'EmisBCPI_Anthro      ', 'GIGCchem',
                          'EmisBCPI_BioBurn     ', 'GIGCchem',
                          'EmisBCPI_Ship        ', 'GIGCchem',
                          'EmisBCPO_Total       ', 'GIGCchem',
                          'EmisBCPO_Anthro      ', 'GIGCchem',
                          'EmisBCPO_BioBurn     ', 'GIGCchem',
                          'EmisBCPO_Ship        ', 'GIGCchem',
                          'EmisBENZ_Total       ', 'GIGCchem',
                          'EmisBENZ_Anthro      ', 'GIGCchem',
                          'EmisBENZ_BioBurn     ', 'GIGCchem',
                          'EmisBENZ_Ship        ', 'GIGCchem',
                          #'EmisC2H2_Total       ', 'GIGCchem',
                          #'EmisC2H2_Anthro      ', 'GIGCchem',
                          #'EmisC2H2_Ship        ', 'GIGCchem',
                          #'EmisC2H4_Total       ', 'GIGCchem',
                          #'EmisC2H4_Anthro      ', 'GIGCchem',
                          #'EmisC2H4_Biogenic    ', 'GIGCchem',
                          #'EmisC2H4_Ship        ', 'GIGCchem',
                          'EmisC2H6_Total       ', 'GIGCchem',
                          'EmisC2H6_Aircraft    ', 'GIGCchem',
                          'EmisC2H6_Anthro      ', 'GIGCchem',
                          'EmisC2H6_BioBurn     ', 'GIGCchem',
                          'EmisC2H6_Ship        ', 'GIGCchem',
                          'EmisC3H8_Total       ', 'GIGCchem',
                          'EmisC3H8_Aircraft    ', 'GIGCchem',
                          'EmisC3H8_Anthro      ', 'GIGCchem',
                          'EmisC3H8_BioBurn     ', 'GIGCchem',
                          'EmisC3H8_Ship        ', 'GIGCchem',
                          'EmisCH2Br2_Ocean     ', 'GIGCchem',
                          'EmisCH2I2_Ocean      ', 'GIGCchem',
                          'EmisCH2ICl_Ocean     ', 'GIGCchem',
                          'EmisCH2IBr_Ocean     ', 'GIGCchem',
                          'EmisCH2O_Total       ', 'GIGCchem',
                          'EmisCH2O_Aircraft    ', 'GIGCchem',
                          'EmisCH2O_Anthro      ', 'GIGCchem',
                          'EmisCH2O_BioBurn     ', 'GIGCchem',
                          'EmisCH2O_Ship        ', 'GIGCchem',
                          'EmisCH3I_Ocean       ', 'GIGCchem',
                          'EmisCH4_Total        ', 'GIGCchem',
                          'EmisCH4_Anthro       ', 'GIGCchem',
                          'EmisCH4_BioBurn      ', 'GIGCchem',
                          'EmisCH4_Ship         ', 'GIGCchem',
                          'EmisCHBr3_Ocean      ', 'GIGCchem',
                          'EmisCO_Total         ', 'GIGCchem',
                          'EmisCO_Aircraft      ', 'GIGCchem',
                          'EmisCO_Anthro        ', 'GIGCchem',
                          'EmisCO_BioBurn       ', 'GIGCchem',
                          'EmisCO_Ship          ', 'GIGCchem',
                          'EmisCO2_Total        ', 'GIGCchem',
                          'EmisCO2_Anthro       ', 'GIGCchem',
                          'EmisCO2_BioBurn      ', 'GIGCchem',
                          'EmisCO2_Ship         ', 'GIGCchem',
                          'EmisDMS_Ocean        ', 'GIGCchem',
                          'EmisDST1_Total       ', 'GIGCchem',
                          'EmisDST1_Anthro      ', 'GIGCchem',
                          'EmisDST1_Natural     ', 'GIGCchem',
                          'EmisDST2_Natural     ', 'GIGCchem',
                          'EmisDST3_Natural     ', 'GIGCchem',
                          'EmisDST4_Natural     ', 'GIGCchem',
                          'EmisEOH_Total        ', 'GIGCchem',
                          'EmisEOH_Anthro       ', 'GIGCchem',
                          'EmisEOH_BioBurn      ', 'GIGCchem',
                          'EmisEOH_Biogenic     ', 'GIGCchem',
                          'EmisEOH_PlantDecay   ', 'GIGCchem',
                          'EmisEOH_Ship         ', 'GIGCchem',
                          'EmisETNO3_Ocean      ', 'GIGCchem',
                          'EmisHAC_Total        ', 'GIGCchem',
                          'EmisHAC_Anthro       ', 'GIGCchem',
                          'EmisGLYC_Total       ', 'GIGCchem',
                          'EmisGLYC_Anthro      ', 'GIGCchem',
                          'EmisGLYX_Total       ', 'GIGCchem',
                          'EmisGLYX_Anthro      ', 'GIGCchem',
                          'EmisHCOOH_Total      ', 'GIGCchem',
                          'EmisHCOOH_Anthro     ', 'GIGCchem',
                          'EmisHCOOH_Ship       ', 'GIGCchem',
                          'EmisHNO2_Anthro      ', 'GIGCchem',
                          'EmisHNO3_Ship        ', 'GIGCchem',
                          'EmisISOP_Total       ', 'GIGCchem',
                          'EmisISOP_Anthro      ', 'GIGCchem',
                          'EmisISOP_Biogenic    ', 'GIGCchem',
                          'EmisLIMO_Biogenic    ', 'GIGCchem',
                          'EmisMACR_Total       ', 'GIGCchem',
                          'EmisMACR_Aircraft    ', 'GIGCchem',
                          'EmisMACR_Anthro      ', 'GIGCchem',
                          'EmisMEK_Total        ', 'GIGCchem',
                          'EmisMEK_Anthro       ', 'GIGCchem',
                          'EmisMEK_BioBurn      ', 'GIGCchem',
                          'EmisMEK_Ship         ', 'GIGCchem',
                          'EmisMENO3_Ocean      ', 'GIGCchem',
                          'EmisMGLY_Total       ', 'GIGCchem',
                          'EmisMGLY_Anthro      ', 'GIGCchem',
                          'EmisMOH_Total        ', 'GIGCchem',
                          'EmisMOH_Anthro       ', 'GIGCchem',
                          'EmisMOH_BioBurn      ', 'GIGCchem',
                          'EmisMOH_Biogenic     ', 'GIGCchem',
                          'EmisMOH_Ocean        ', 'GIGCchem',
                          'EmisMOH_Ship         ', 'GIGCchem',
                          'EmisMTPA_Total       ', 'GIGCchem',
                          'EmisMTPA_BioBurn     ', 'GIGCchem',
                          'EmisMTPA_Biogenic    ', 'GIGCchem',
                          'EmisMTPO_Biogenic    ', 'GIGCchem',
                          'EmisMVK_Anthro       ', 'GIGCchem',
                          'EmisNAP_Total        ', 'GIGCchem',
                          'EmisNAP_Anthro       ', 'GIGCchem',
                          'EmisNAP_BioBurn      ', 'GIGCchem',
                          'EmisNH3_Total        ', 'GIGCchem',
                          'EmisNH3_Anthro       ', 'GIGCchem',
                          'EmisNH3_BioBurn      ', 'GIGCchem',
                          'EmisNH3_Natural      ', 'GIGCchem',
                          'EmisNH3_Seabirds     ', 'GIGCchem',
                          'EmisNH3_Ship         ', 'GIGCchem',
                          'EmisNO_Total         ', 'GIGCchem',
                          'EmisNO_Aircraft      ', 'GIGCchem',
                          'EmisNO_Anthro        ', 'GIGCchem',
                          'EmisNO_BioBurn       ', 'GIGCchem',
                          'EmisNO_Lightning     ', 'GIGCchem',
                          'EmisNO_Ship          ', 'GIGCchem',
                          'EmisNO_Soil          ', 'GIGCchem',
                          'EmisNO2_Anthro       ', 'GIGCchem',
                          'EmisNO2_Ship         ', 'GIGCchem',
                          'EmisO3_Ship          ', 'GIGCchem',
                          'EmisOCPI_Total       ', 'GIGCchem',
                          'EmisOCPI_Aircraft    ', 'GIGCchem',
                          'EmisOCPI_Anthro      ', 'GIGCchem',
                          'EmisOCPI_BioBurn     ', 'GIGCchem',
                          'EmisOCPI_Ship        ', 'GIGCchem',
                          'EmisOCPO_Total       ', 'GIGCchem',
                          'EmisOCPO_Anthro      ', 'GIGCchem',
                          'EmisOCPO_BioBurn     ', 'GIGCchem',
                          'EmisOCPO_Ship        ', 'GIGCchem',
                          'EmispFe_Total        ', 'GIGCchem',
                          'EmispFe_Anthro       ', 'GIGCchem',
                          'EmispFe_Ship         ', 'GIGCchem',
                          'EmisPOG1_Total       ', 'GIGCchem',
                          'EmisPOG1_Anthro      ', 'GIGCchem',
                          'EmisPOG1_BioBurn     ', 'GIGCchem',
                          'EmisPOG2_Total       ', 'GIGCchem',
                          'EmisPOG2_Anthro      ', 'GIGCchem',
                          'EmisPOG2_BioBurn     ', 'GIGCchem',
                          'EmisPRPE_Total       ', 'GIGCchem',
                          'EmisPRPE_Aircraft    ', 'GIGCchem',
                          'EmisPRPE_Anthro      ', 'GIGCchem',
                          'EmisPRPE_BioBurn     ', 'GIGCchem',
                          'EmisPRPE_Biogenic    ', 'GIGCchem',
                          'EmisPRPE_Ship        ', 'GIGCchem',
                          'EmisRCHO_Total       ', 'GIGCchem',
                          'EmisRCHO_Aircraft    ', 'GIGCchem',
                          'EmisRCHO_Anthro      ', 'GIGCchem',
                          #'EmisSESQ_Biogenic    ', 'GIGCchem',
                          'EmisBr2_Natural      ', 'GIGCchem',
                          'EmisBrSALA_Natural   ', 'GIGCchem',
                          'EmisBrSALC_Natural   ', 'GIGCchem',
                          'EmisSALA_Natural     ', 'GIGCchem',
                          'EmisSALAAL_Natural   ', 'GIGCchem',
                          'EmisSALACL_Natural   ', 'GIGCchem',
                          'EmisSALC_Natural     ', 'GIGCchem',
                          'EmisSALCAL_Natural   ', 'GIGCchem',
                          'EmisSALCCL_Natural   ', 'GIGCchem',
                          'EmisSO2_Total        ', 'GIGCchem',
                          'EmisSO2_Aircraft     ', 'GIGCchem',
                          'EmisSO2_Anthro       ', 'GIGCchem',
                          'EmisSO2_BioBurn      ', 'GIGCchem',
                          'EmisSO2_VolcErupt    ', 'GIGCchem',
                          'EmisSO2_VolcDegas    ', 'GIGCchem',
                          'EmisSO2_Ship         ', 'GIGCchem',
                          'EmisSO4_Total        ', 'GIGCchem',
                          'EmisSO4_Aircraft     ', 'GIGCchem',
                          'EmisSO4_Anthro       ', 'GIGCchem',
                          'EmisSO4_Ship         ', 'GIGCchem',
                          'EmisSOAP_Total       ', 'GIGCchem',
                          'EmisSOAP_Aircraft    ', 'GIGCchem',
                          'EmisSOAP_Anthro      ', 'GIGCchem',
                          'EmisSOAP_Biogenic    ', 'GIGCchem',
                          'EmisSOAP_BioBurn     ', 'GIGCchem',
                          'EmisSOAP_Ship        ', 'GIGCchem',
                          'EmisSOAS_Biogenic    ', 'GIGCchem',
                          'EmisTOLU_Total       ', 'GIGCchem',
                          'EmisTOLU_Anthro      ', 'GIGCchem',
                          'EmisTOLU_BioBurn     ', 'GIGCchem',
                          'EmisTOLU_Ship        ', 'GIGCchem',
                          'EmisXYLE_Total       ', 'GIGCchem',
                          'EmisXYLE_Anthro      ', 'GIGCchem',
                          'EmisXYLE_BioBurn     ', 'GIGCchem',
                          'EmisXYLE_Ship        ', 'GIGCchem',
                          'LightningFlashRate_Total       ', 'GIGCchem',
                          'LightningFlashRate_IntraCloud  ', 'GIGCchem',
                          'LightningFlashRate_CloudGround ', 'GIGCchem',
                          'ConvectiveCloudTopHeight       ', 'GIGCchem',
                          'InvAPEI_BCPI         ', 'GIGCchem',
                          'InvAPEI_BCPO         ', 'GIGCchem',
                          'InvAPEI_CO           ', 'GIGCchem',
                          'InvAPEI_NH3          ', 'GIGCchem',
                          'InvAPEI_NO           ', 'GIGCchem',
                          'InvAPEI_OCPI         ', 'GIGCchem',
                          'InvAPEI_OCPO         ', 'GIGCchem',
                          'InvAPEI_pFe          ', 'GIGCchem',
                          'InvAPEI_POG1         ', 'GIGCchem',
                          'InvAPEI_POG2         ', 'GIGCchem',
                          'InvAPEI_SO2          ', 'GIGCchem',
                          'InvAPEI_SO4          ', 'GIGCchem',
                          'InvAPEI_SOAP         ', 'GIGCchem',
                          'InvNEI2011_ACET      ', 'GIGCchem',
                          'InvNEI2011_ALD2      ', 'GIGCchem',
                          'InvNEI2011_ALK4      ', 'GIGCchem',
                          'InvNEI2011_BCPI      ', 'GIGCchem',
                          'InvNEI2011_BCPO      ', 'GIGCchem',
                          'InvNEI2011_BENZ      ', 'GIGCchem',
                          'InvNEI2011_C2H4      ', 'GIGCchem',
                          'InvNEI2011_C2H6      ', 'GIGCchem',
                          'InvNEI2011_C3H8      ', 'GIGCchem',
                          'InvNEI2011_CH2O      ', 'GIGCchem',
                          'InvNEI2011_CO        ', 'GIGCchem',
                          'InvNEI2011_EOH       ', 'GIGCchem',
                          'InvNEI2011_HONO      ', 'GIGCchem',
                          'InvNEI2011_MACR      ', 'GIGCchem',
                          'InvNEI2011_MEK       ', 'GIGCchem',
                          'InvNEI2011_MOH       ', 'GIGCchem',
                          'InvNEI2011_NH3       ', 'GIGCchem',
                          'InvNEI2011_NO        ', 'GIGCchem',
                          'InvNEI2011_NO2       ', 'GIGCchem',
                          'InvNEI2011_pFe       ', 'GIGCchem',
                          'InvNEI2011_PRPE      ', 'GIGCchem',
                          'InvNEI2011_OCPI      ', 'GIGCchem',
                          'InvNEI2011_OCPO      ', 'GIGCchem',
                          'InvNEI2011_RCHO      ', 'GIGCchem',
                          'InvNEI2011_SO2       ', 'GIGCchem',
                          'InvNEI2011_SO4       ', 'GIGCchem',
                          'InvNEI2011_SOAP      ', 'GIGCchem',
                          'InvNEI2011_TOLU      ', 'GIGCchem',
                          'InvNEI2011_XYLE      ', 'GIGCchem',
                          'InvMIX_ACET          ', 'GIGCchem',
                          'InvMIX_ALD2          ', 'GIGCchem',
                          'InvMIX_ALK4          ', 'GIGCchem',
                          'InvMIX_C2H6          ', 'GIGCchem',
                          'InvMIX_C3H8          ', 'GIGCchem',
                          'InvMIX_CH2O          ', 'GIGCchem',
                          'InvMIX_CO            ', 'GIGCchem',
                          'InvMIX_MEK           ', 'GIGCchem',
                          'InvMIX_NH3           ', 'GIGCchem',
                          'InvMIX_NO            ', 'GIGCchem',
                          'InvMIX_pFe           ', 'GIGCchem',
                          'InvMIX_PRPE          ', 'GIGCchem',
                          'InvMIX_SO2           ', 'GIGCchem',
                          'InvMIX_SO4           ', 'GIGCchem',
                          'InvMIX_SOAP          ', 'GIGCchem',
                          'InvDICEAfrica_ACET   ', 'GIGCchem',
                          'InvDICEAfrica_ALD2   ', 'GIGCchem',
                          'InvDICEAfrica_ALK4   ', 'GIGCchem',
                          'InvDICEAfrica_BCPI   ', 'GIGCchem',
                          'InvDICEAfrica_BCPO   ', 'GIGCchem',
                          'InvDICEAfrica_BENZ   ', 'GIGCchem',
                          'InvDICEAfrica_C2H2   ', 'GIGCchem',
                          'InvDICEAfrica_C2H4   ', 'GIGCchem',
                          'InvDICEAfrica_C2H6   ', 'GIGCchem',
                          'InvDICEAfrica_C3H8   ', 'GIGCchem',
                          'InvDICEAfrica_CH2O   ', 'GIGCchem',
                          'InvDICEAfrica_CO     ', 'GIGCchem',
                          'InvDICEAfrica_HAC    ', 'GIGCchem',
                          'InvDICEAfrica_HCOOH  ', 'GIGCchem',
                          'InvDICEAfrica_GLYC   ', 'GIGCchem',
                          'InvDICEAfrica_ISOP   ', 'GIGCchem',
                          'InvDICEAfrica_MACR   ', 'GIGCchem',
                          'InvDICEAfrica_MEK    ', 'GIGCchem',
                          'InvDICEAfrica_MOH    ', 'GIGCchem',
                          'InvDICEAfrica_MVK    ', 'GIGCchem',
                          'InvDICEAfrica_NH3    ', 'GIGCchem',
                          'InvDICEAfrica_NO     ', 'GIGCchem',
                          'InvDICEAfrica_NO2    ', 'GIGCchem',
                          'InvDICEAfrica_OCPI   ', 'GIGCchem',
                          'InvDICEAfrica_OCPO   ', 'GIGCchem',
                          'InvDICEAfrica_pFe    ', 'GIGCchem',
                          'InvDICEAfrica_PRPE   ', 'GIGCchem',
                          'InvDICEAfrica_RCHO   ', 'GIGCchem',
                          'InvDICEAfrica_SO2    ', 'GIGCchem',
                          'InvDICEAfrica_SO4    ', 'GIGCchem',
                          'InvDICEAfrica_SOAP   ', 'GIGCchem',
                          'InvDICEAfrica_TOLU   ', 'GIGCchem',
                          'InvDICEAfrica_XYLE   ', 'GIGCchem',
                          'InvCEDS_ALD2         ', 'GIGCchem',
                          'InvCEDS_ALK4         ', 'GIGCchem',
                          'InvCEDS_BCPI         ', 'GIGCchem',
                          'InvCEDS_BCPO         ', 'GIGCchem',
                          'InvCEDS_BENZ         ', 'GIGCchem',
                          'InvCEDS_C2H2         ', 'GIGCchem',
                          'InvCEDS_C2H4         ', 'GIGCchem',
                          'InvCEDS_C2H6         ', 'GIGCchem',
                          'InvCEDS_C3H8         ', 'GIGCchem',
                          'InvCEDS_CH2O         ', 'GIGCchem',
                          'InvCEDS_CH4          ', 'GIGCchem',
                          'InvCEDS_CO           ', 'GIGCchem',
                          'InvCEDS_CO2          ', 'GIGCchem',
                          'InvCEDS_MOH          ', 'GIGCchem',
                          'InvCEDS_EOH          ', 'GIGCchem',
                          'InvCEDS_HCOOH        ', 'GIGCchem',
                          'InvCEDS_MEK          ', 'GIGCchem',
                          'InvCEDS_NH3          ', 'GIGCchem',
                          'InvCEDS_NO           ', 'GIGCchem',
                          'InvCEDS_OCPI         ', 'GIGCchem',
                          'InvCEDS_OCPO         ', 'GIGCchem',
                          'InvCEDS_pFe          ', 'GIGCchem',
                          'InvCEDS_POG1         ', 'GIGCchem',
                          'InvCEDS_POG2         ', 'GIGCchem',
                          'InvCEDS_PRPE         ', 'GIGCchem',
                          'InvCEDS_SO2          ', 'GIGCchem',
                          'InvCEDS_SO4          ', 'GIGCchem',
                          'InvCEDS_SOAP         ', 'GIGCchem',
                          'InvCEDS_TOLU         ', 'GIGCchem',
                          'InvCEDS_XYLE         ', 'GIGCchem',
                          'InvGEIAnatural_NH3   ', 'GIGCchem',
                          'InvSEABIRDS_NH3      ', 'GIGCchem',
                          'InvC2H62010_C2H6     ', 'GIGCchem',
                          'InvXIAO_C3H8         ', 'GIGCchem',
                          'InvLIANG_CH2Br2      ', 'GIGCchem',
                          'InvLIANG_CHBr3       ', 'GIGCchem',
                          'InvORDONEZ_CH2I2     ', 'GIGCchem',
                          'InvORDONEZ_CH2ICl    ', 'GIGCchem',
                          'InvORDONEZ_CH2IBr    ', 'GIGCchem',
                          'InvORDONEZ_CH3I      ', 'GIGCchem',
                          'InvCEDSship_ALD2     ', 'GIGCchem',
                          'InvCEDSship_ALK4     ', 'GIGCchem',
                          'InvCEDSship_BCPI     ', 'GIGCchem',
                          'InvCEDSship_BCPO     ', 'GIGCchem',
                          'InvCEDSship_BENZ     ', 'GIGCchem',
                          'InvCEDSship_C2H2     ', 'GIGCchem',
                          'InvCEDSship_C2H4     ', 'GIGCchem',
                          'InvCEDSship_C2H6     ', 'GIGCchem',
                          'InvCEDSship_C3H8     ', 'GIGCchem',
                          'InvCEDSship_CH2O     ', 'GIGCchem',
                          'InvCEDSship_CO       ', 'GIGCchem',
                          'InvCEDSship_EOH      ', 'GIGCchem',
                          'InvCEDSship_HCOOH    ', 'GIGCchem',
                          'InvCEDSship_MEK      ', 'GIGCchem',
                          'InvCEDSship_NH3      ', 'GIGCchem',
                          'InvCEDSship_pFe      ', 'GIGCchem',
                          'InvCEDSship_PRPE     ', 'GIGCchem',
                          'InvCEDSship_OCPI     ', 'GIGCchem',
                          'InvCEDSship_OCPO     ', 'GIGCchem',
                          'InvCEDSship_SO2      ', 'GIGCchem',
                          'InvCEDSship_SO4      ', 'GIGCchem',
                          'InvCEDSship_SOAP     ', 'GIGCchem',
                          'InvCEDSship_TOLU     ', 'GIGCchem',
                          'InvCEDSship_XYLE     ', 'GIGCchem',
                          'InvAEIC_ACET         ', 'GIGCchem',
                          'InvAEIC_ALD2         ', 'GIGCchem',
                          'InvAEIC_ALK4         ', 'GIGCchem',
                          'InvAEIC_BCPI         ', 'GIGCchem',
                          'InvAEIC_C2H6         ', 'GIGCchem',
                          'InvAEIC_C3H8         ', 'GIGCchem',
                          'InvAEIC_CH2O         ', 'GIGCchem',
                          'InvAEIC_CO           ', 'GIGCchem',
                          'InvAEIC_MACR         ', 'GIGCchem',
                          'InvAEIC_NO           ', 'GIGCchem',
                          'InvAEIC_OCPI         ', 'GIGCchem',
                          'InvAEIC_PRPE         ', 'GIGCchem',
                          'InvAEIC_RCHO         ', 'GIGCchem',
                          'InvAEIC_SO2          ', 'GIGCchem',
                          'InvAEIC_SO4          ', 'GIGCchem',
                          'InvAEIC_SOAP         ', 'GIGCchem',
                          'InvPLANTDECAY_ALD2   ', 'GIGCchem',
                          'InvPLANTDECAY_EOH    ', 'GIGCchem',
                          'InvAFCID_DST1        ', 'GIGCchem',
                          'InvDEAD_DST1         ', 'GIGCchem',
                          'InvDEAD_DST2         ', 'GIGCchem',
                          'InvDEAD_DST3         ', 'GIGCchem',
                          'InvDEAD_DST4         ', 'GIGCchem',
                          'InvMEGAN_ALD2        ', 'GIGCchem',
                          #'InvMEGAN_C2H4        ', 'GIGCchem',
                          'InvMEGAN_EOH         ', 'GIGCchem',
                          'InvMEGAN_ISOP        ', 'GIGCchem',
                          'InvMEGAN_LIMO        ', 'GIGCchem',
                          'InvMEGAN_MTPA        ', 'GIGCchem',
                          'InvMEGAN_MTPO        ', 'GIGCchem',
                          'InvMEGAN_PRPE        ', 'GIGCchem',
                          #'InvMEGAN_SESQ        ', 'GIGCchem',
                          'InvMEGAN_SOAP        ', 'GIGCchem',
                          'InvMEGAN_SOAS        ', 'GIGCchem',
                          'InvMEGAN_ACET        ', 'GIGCchem',
                          'InvMEGAN_ACET_MONO   ', 'GIGCchem',
                          'InvMEGAN_ACET_MBOX   ', 'GIGCchem',
                          'InvMEGAN_ACET_DIRECT ', 'GIGCchem',
                          'InvMEGAN_MOH         ', 'GIGCchem',
                          'InvMEGAN_APIN        ', 'GIGCchem',
                          'InvMEGAN_BPIN        ', 'GIGCchem',
                          'InvMEGAN_SABI        ', 'GIGCchem',
                          'InvMEGAN_MYRC        ', 'GIGCchem',
                          'InvMEGAN_CARE        ', 'GIGCchem',
                          'InvMEGAN_OCIM        ', 'GIGCchem',
                          'InvMEGAN_OMON        ', 'GIGCchem',
                          'InvMEGAN_MONX        ', 'GIGCchem',
                          'InvMEGAN_FARN        ', 'GIGCchem',
                          'InvMEGAN_BCAR        ', 'GIGCchem',
                          'InvMEGAN_OSQT        ', 'GIGCchem',
                          'InvMEGAN_MBOX        ', 'GIGCchem',
                          'InvMEGAN_FAXX        ', 'GIGCchem',
                          'InvMEGAN_AAXX        ', 'GIGCchem',
                          'InvSeaSalt_Br2       ', 'GIGCchem',
                          'InvSeaSalt_BrSALA    ', 'GIGCchem',
                          'InvSeaSalt_BrSALC    ', 'GIGCchem',
                          'InvSeaSalt_SALA      ', 'GIGCchem',
                          'InvSeaSalt_SALAAL    ', 'GIGCchem',
                          'InvSeaSalt_SALACL    ', 'GIGCchem',
                          'InvSeaSalt_SALC      ', 'GIGCchem',
                          'InvSeaSalt_SALCAL    ', 'GIGCchem',
                          'InvSeaSalt_SALCCL    ', 'GIGCchem',
                          'InvSOILNOX_NO        ', 'GIGCchem',
                          'InvSeaFlux_ACET      ', 'GIGCchem',
                          'InvSeaFlux_ALD2      ', 'GIGCchem',
                          'InvSeaFlux_DMS       ', 'GIGCchem',
                          'InvSeaFlux_CH3I      ', 'GIGCchem',
                          'InvSeaFlux_ETNO3     ', 'GIGCchem',
                          'InvSeaFlux_MENO3     ', 'GIGCchem',
                          'InvSeaFlux_MOH       ', 'GIGCchem',
                          'InvPARANOX_HNO3      ', 'GIGCchem',
                          'InvPARANOX_NO        ', 'GIGCchem',
                          'InvPARANOX_NO2       ', 'GIGCchem',
                          'InvPARANOX_O3        ', 'GIGCchem',
                          'InvLIGHTNOX_NO       ', 'GIGCchem',
                          'InvGFED_ACET         ', 'GIGCchem',
                          'InvGFED_ALD2         ', 'GIGCchem',
                          'InvGFED_ALK4         ', 'GIGCchem',
                          'InvGFED_BCPI         ', 'GIGCchem',
                          'InvGFED_BCPO         ', 'GIGCchem',
                          'InvGFED_BENZ         ', 'GIGCchem',
                          'InvGFED_C2H6         ', 'GIGCchem',
                          'InvGFED_C3H8         ', 'GIGCchem',
                          'InvGFED_CH2O         ', 'GIGCchem',
                          'InvGFED_CO           ', 'GIGCchem',
                          'InvGFED_EOH          ', 'GIGCchem',
                          'InvGFED_MEK          ', 'GIGCchem',
                          'InvGFED_MOH          ', 'GIGCchem',
                          'InvGFED_MTPA         ', 'GIGCchem',
                          'InvGFED_NAP          ', 'GIGCchem',
                          'InvGFED_NH3          ', 'GIGCchem',
                          'InvGFED_NO           ', 'GIGCchem',
                          'InvGFED_OCPI         ', 'GIGCchem',
                          'InvGFED_OCPO         ', 'GIGCchem',
                          'InvGFED_POG1         ', 'GIGCchem',
                          'InvGFED_POG2         ', 'GIGCchem',
                          'InvGFED_PRPE         ', 'GIGCchem',
                          'InvGFED_SO2          ', 'GIGCchem',
                          'InvGFED_SOAP         ', 'GIGCchem',
                          'InvGFED_TOLU         ', 'GIGCchem',
                          'InvGFED_XYLE         ', 'GIGCchem',
                          'InvVOLCANOerupt_SO2  ', 'GIGCchem',
                          'InvVOLCANOdegas_SO2  ', 'GIGCchem',
                          'InvIODINE_HOI        ', 'GIGCchem',
                          'InvIODINE_I2         ', 'GIGCchem',
::
#==============================================================================
# %%%%% THE AerosolMass COLLECTION %%%%%
#
# Aerosol and PM2.5 mass
#
# Available for full-chemistry and aerosol-only simulations
#==============================================================================
  AerosolMass.template:   '%y4%m2%d2_%h2%n2z.nc4',
  AerosolMass.format:     'CFIO',
  AerosolMass.frequency:  010000
  AerosolMass.duration:   010000
  AerosolMass.mode:       'time-averaged'
  AerosolMass.fields:     'AerMassASOA        ', 'GIGCchem',
                          'AerMassBC          ', 'GIGCchem',
                          'AerMassHMS          ', 'GIGCchem',
                          'AerMassINDIOL      ', 'GIGCchem',
                          'AerMassLVOCOA      ', 'GIGCchem',
                          'AerMassNH4         ', 'GIGCchem',
                          'AerMassNIT         ', 'GIGCchem',
                          'AerMassOPOA        ', 'GIGCchem',
                          'AerMassPOA         ', 'GIGCchem',
                          'AerMassSAL         ', 'GIGCchem',
                          'AerMassSO4         ', 'GIGCchem',
                          'AerMassSOAGX       ', 'GIGCchem',
                          'AerMassSOAIE       ', 'GIGCchem',
                          'AerMassTSOA        ', 'GIGCchem',
                          'BetaNO             ', 'GIGCchem',
                          'PM25               ', 'GIGCchem',
                          'TotalBiogenicOA    ', 'GIGCchem',
                          'TotalOA            ', 'GIGCchem',
                          'TotalOC            ', 'GIGCchem',
::
#==============================================================================
# %%%%% The Aerosols COLLECTION %%%%%
#
# Aerosol optical depth, surface area, number density, and hygroscopic growth
#
# Available for full-chemistry or aerosol-only simulations
#==============================================================================
  Aerosols.template:      '%y4%m2%d2_%h2%n2z.nc4',
  Aerosols.format:        'CFIO',
  Aerosols.frequency:     010000
  Aerosols.duration:      010000
  Aerosols.mode:          'time-averaged'
  Aerosols.fields:        'AODHygWL1_SO4                 ', 'GIGCchem',
                          'AODHygWL1_BCPI                ', 'GIGCchem',
                          'AODHygWL1_OCPI                ', 'GIGCchem',
                          'AODHygWL1_SALA                ', 'GIGCchem',
                          'AODHygWL1_SALC                ', 'GIGCchem',
                          'AODDust                       ', 'GIGCchem',
                          'AODDustWL1_bin1               ', 'GIGCchem',
                          'AODDustWL1_bin2               ', 'GIGCchem',
                          'AODDustWL1_bin3               ', 'GIGCchem',
                          'AODDustWL1_bin4               ', 'GIGCchem',
                          'AODDustWL1_bin5               ', 'GIGCchem',
                          'AODDustWL1_bin6               ', 'GIGCchem',
                          'AODDustWL1_bin7               ', 'GIGCchem',
                          'AODSOAfromAqIsopreneWL1       ', 'GIGCchem',
                          'AODStratLiquidAerWL1          ', 'GIGCchem',
                          'AODPolarStratCloudWL1         ', 'GIGCchem',
                          'AerHygroscopicGrowth_SO4      ', 'GIGCchem',
                          'AerHygroscopicGrowth_BCPI     ', 'GIGCchem',
                          'AerHygroscopicGrowth_OCPI     ', 'GIGCchem',
                          'AerHygroscopicGrowth_SALA     ', 'GIGCchem',
                          'AerHygroscopicGrowth_SALC     ', 'GIGCchem',
                          'AerNumDensityStratLiquid      ', 'GIGCchem',
                          'AerNumDensityStratParticulate ', 'GIGCchem',
                          'AerAqueousVolume              ', 'GIGCchem',
                          'AerSurfAreaDust               ', 'GIGCchem',
                          'AerSurfAreaHyg_SO4            ', 'GIGCchem',
                          'AerSurfAreaHyg_BCPI           ', 'GIGCchem',
                          'AerSurfAreaHyg_OCPI           ', 'GIGCchem',
                          'AerSurfAreaHyg_SALA           ', 'GIGCchem',
                          'AerSurfAreaHyg_SALC           ', 'GIGCchem',
                          'AerSurfAreaStratLiquid        ', 'GIGCchem',
                          'AerSurfAreaPolarStratCloud    ', 'GIGCchem',
                          'Chem_AeroAreaMDUST1           ', 'GIGCchem',
                          'Chem_AeroAreaMDUST2           ', 'GIGCchem',
                          'Chem_AeroAreaMDUST3           ', 'GIGCchem',
                          'Chem_AeroAreaMDUST4           ', 'GIGCchem',
                          'Chem_AeroAreaMDUST5           ', 'GIGCchem',
                          'Chem_AeroAreaMDUST6           ', 'GIGCchem',
                          'Chem_AeroAreaMDUST7           ', 'GIGCchem',
                          'Chem_AeroAreaSULF             ', 'GIGCchem',
                          'Chem_AeroAreaBC               ', 'GIGCchem',
                          'Chem_AeroAreaOC               ', 'GIGCchem',
                          'Chem_AeroAreaSSA              ', 'GIGCchem',
                          'Chem_AeroAreaSSC              ', 'GIGCchem',
                          'Chem_AeroAreaBGSULF           ', 'GIGCchem',
                          'Chem_AeroAreaICEI             ', 'GIGCchem',
                          'Chem_AeroRadiMDUST1           ', 'GIGCchem',
                          'Chem_AeroRadiMDUST2           ', 'GIGCchem',
                          'Chem_AeroRadiMDUST3           ', 'GIGCchem',
                          'Chem_AeroRadiMDUST4           ', 'GIGCchem',
                          'Chem_AeroRadiMDUST5           ', 'GIGCchem',
                          'Chem_AeroRadiMDUST6           ', 'GIGCchem',
                          'Chem_AeroRadiMDUST7           ', 'GIGCchem',
                          'Chem_AeroRadiSULF             ', 'GIGCchem',
                          'Chem_AeroRadiBC               ', 'GIGCchem',
                          'Chem_AeroRadiOC               ', 'GIGCchem',
                          'Chem_AeroRadiSSA              ', 'GIGCchem',
                          'Chem_AeroRadiSSC              ', 'GIGCchem',
                          'Chem_AeroRadiBGSULF           ', 'GIGCchem',
                          'Chem_AeroRadiICEI             ', 'GIGCchem',
                          'Chem_WetAeroAreaMDUST1        ', 'GIGCchem',
                          'Chem_WetAeroAreaMDUST2        ', 'GIGCchem',
                          'Chem_WetAeroAreaMDUST3        ', 'GIGCchem',
                          'Chem_WetAeroAreaMDUST4        ', 'GIGCchem',
                          'Chem_WetAeroAreaMDUST5        ', 'GIGCchem',
                          'Chem_WetAeroAreaMDUST6        ', 'GIGCchem',
                          'Chem_WetAeroAreaMDUST7        ', 'GIGCchem',
                          'Chem_WetAeroAreaSULF          ', 'GIGCchem',
                          'Chem_WetAeroAreaBC            ', 'GIGCchem',
                          'Chem_WetAeroAreaOC            ', 'GIGCchem',
                          'Chem_WetAeroAreaSSA           ', 'GIGCchem',
                          'Chem_WetAeroAreaSSC           ', 'GIGCchem',
                          'Chem_WetAeroAreaBGSULF        ', 'GIGCchem',
                          'Chem_WetAeroAreaICEI          ', 'GIGCchem',
                          'Chem_WetAeroRadiMDUST1        ', 'GIGCchem',
                          'Chem_WetAeroRadiMDUST2        ', 'GIGCchem',
                          'Chem_WetAeroRadiMDUST3        ', 'GIGCchem',
                          'Chem_WetAeroRadiMDUST4        ', 'GIGCchem',
                          'Chem_WetAeroRadiMDUST5        ', 'GIGCchem',
                          'Chem_WetAeroRadiMDUST6        ', 'GIGCchem',
                          'Chem_WetAeroRadiMDUST7        ', 'GIGCchem',
                          'Chem_WetAeroRadiSULF          ', 'GIGCchem',
                          'Chem_WetAeroRadiBC            ', 'GIGCchem',
                          'Chem_WetAeroRadiOC            ', 'GIGCchem',
                          'Chem_WetAeroRadiSSA           ', 'GIGCchem',
                          'Chem_WetAeroRadiSSC           ', 'GIGCchem',
                          'Chem_WetAeroRadiBGSULF        ', 'GIGCchem',
                          'Chem_WetAeroRadiICEI          ', 'GIGCchem',
                          'Chem_StatePSC                 ', 'GIGCchem',
                          'Chem_KhetiSLAN2O5H2O          ', 'GIGCchem',
                          'Chem_KhetiSLAN2O5HCl          ', 'GIGCchem',
                          'Chem_KhetiSLAClNO3H2O         ', 'GIGCchem',
                          'Chem_KhetiSLAClNO3HCl         ', 'GIGCchem',
                          'Chem_KhetiSLAClNO3HBr         ', 'GIGCchem',
                          'Chem_KhetiSLABrNO3H2O         ', 'GIGCchem',
                          'Chem_KhetiSLABrNO3HCl         ', 'GIGCchem',
                          'Chem_KhetiSLAHOClHCl          ', 'GIGCchem',
                          'Chem_KhetiSLAHOClHBr          ', 'GIGCchem',
                          'Chem_KhetiSLAHOBrHCl          ', 'GIGCchem',
                          'Chem_KhetiSLAHOBrHBr          ', 'GIGCchem',
::
#==============================================================================
# Budget defined as species kg/s in the column (full, troposphere, or PBL)
# due to a single component (e.g. chemistry); default = ozone only; add more
# species as needed (advected only)
  Budget.template:        '%y4%m2%d2_%h2%n2z.nc4',
  Budget.format:          'CFIO',
  Budget.frequency:       010000
  Budget.duration:        010000
  Budget.mode:            'time-averaged'
  Budget.fields:          'BudgetEmisDryDepFull_XYLE            ', 'GIGCchem',
                          'BudgetEmisDryDepFull_TSOG3           ', 'GIGCchem',
                          'BudgetEmisDryDepFull_TSOG2           ', 'GIGCchem',
                          'BudgetEmisDryDepFull_TSOG1           ', 'GIGCchem',
                          'BudgetEmisDryDepFull_TSOG0           ', 'GIGCchem',
                          'BudgetEmisDryDepFull_TSOA3           ', 'GIGCchem',
                          'BudgetEmisDryDepFull_TSOA2           ', 'GIGCchem',
                          'BudgetEmisDryDepFull_TSOA1           ', 'GIGCchem',
                          'BudgetEmisDryDepFull_TSOA0           ', 'GIGCchem',
                          'BudgetEmisDryDepFull_TOLU            ', 'GIGCchem',
                          'BudgetEmisDryDepFull_SOAS            ', 'GIGCchem',
                          'BudgetEmisDryDepFull_SOAP            ', 'GIGCchem',
                          'BudgetEmisDryDepFull_SOAIE           ', 'GIGCchem',
                          'BudgetEmisDryDepFull_SOAGX           ', 'GIGCchem',
                          'BudgetEmisDryDepFull_SO4s            ', 'GIGCchem',
                          'BudgetEmisDryDepFull_SO4             ', 'GIGCchem',
                          'BudgetEmisDryDepFull_SO2             ', 'GIGCchem',
                          'BudgetEmisDryDepFull_SALCCL          ', 'GIGCchem',
                          'BudgetEmisDryDepFull_SALCAL          ', 'GIGCchem',
                          'BudgetEmisDryDepFull_SALC            ', 'GIGCchem',
                          'BudgetEmisDryDepFull_SALACL          ', 'GIGCchem',
                          'BudgetEmisDryDepFull_SALAAL          ', 'GIGCchem',
                          'BudgetEmisDryDepFull_SALA            ', 'GIGCchem',
                          'BudgetEmisDryDepFull_RP              ', 'GIGCchem',
                          'BudgetEmisDryDepFull_RIPD            ', 'GIGCchem',
                          'BudgetEmisDryDepFull_RIPC            ', 'GIGCchem',
                          'BudgetEmisDryDepFull_RIPB            ', 'GIGCchem',
                          'BudgetEmisDryDepFull_RIPA            ', 'GIGCchem',
                          'BudgetEmisDryDepFull_RCHO            ', 'GIGCchem',
                          'BudgetEmisDryDepFull_RB3P            ', 'GIGCchem',
                          'BudgetEmisDryDepFull_RA3P            ', 'GIGCchem',
                          'BudgetEmisDryDepFull_R4P             ', 'GIGCchem',
                          'BudgetEmisDryDepFull_R4N2            ', 'GIGCchem',
                          'BudgetEmisDryDepFull_PYAC            ', 'GIGCchem',
                          'BudgetEmisDryDepFull_PRPN            ', 'GIGCchem',
                          'BudgetEmisDryDepFull_PRPE            ', 'GIGCchem',
                          'BudgetEmisDryDepFull_PROPNN          ', 'GIGCchem',
                          'BudgetEmisDryDepFull_PPN             ', 'GIGCchem',
                          'BudgetEmisDryDepFull_PP              ', 'GIGCchem',
                          'BudgetEmisDryDepFull_PIP             ', 'GIGCchem',
                          'BudgetEmisDryDepFull_pFe             ', 'GIGCchem',
                          'BudgetEmisDryDepFull_PAN             ', 'GIGCchem',
                          'BudgetEmisDryDepFull_OIO             ', 'GIGCchem',
                          'BudgetEmisDryDepFull_OCS             ', 'GIGCchem',
                          'BudgetEmisDryDepFull_OCPO            ', 'GIGCchem',
                          'BudgetEmisDryDepFull_OCPI            ', 'GIGCchem',
                          'BudgetEmisDryDepFull_OClO            ', 'GIGCchem',
                          'BudgetEmisDryDepFull_O3              ', 'GIGCchem',
                          'BudgetEmisDryDepFull_NPRNO3          ', 'GIGCchem',
                          'BudgetEmisDryDepFull_NO3             ', 'GIGCchem',
                          'BudgetEmisDryDepFull_NO2             ', 'GIGCchem',
                          'BudgetEmisDryDepFull_NO              ', 'GIGCchem',
                          'BudgetEmisDryDepFull_NITs            ', 'GIGCchem',
                          'BudgetEmisDryDepFull_NIT             ', 'GIGCchem',
                          'BudgetEmisDryDepFull_NH4             ', 'GIGCchem',
                          'BudgetEmisDryDepFull_NH3             ', 'GIGCchem',
                          'BudgetEmisDryDepFull_N2O5            ', 'GIGCchem',
                          'BudgetEmisDryDepFull_N2O             ', 'GIGCchem',
                          'BudgetEmisDryDepFull_MVKPC           ', 'GIGCchem',
                          'BudgetEmisDryDepFull_MVKN            ', 'GIGCchem',
                          'BudgetEmisDryDepFull_MVKHP           ', 'GIGCchem',
                          'BudgetEmisDryDepFull_MVKHCB          ', 'GIGCchem',
                          'BudgetEmisDryDepFull_MVKHC           ', 'GIGCchem',
                          'BudgetEmisDryDepFull_MVKDH           ', 'GIGCchem',
                          'BudgetEmisDryDepFull_MVK             ', 'GIGCchem',
                          'BudgetEmisDryDepFull_MTPO            ', 'GIGCchem',
                          'BudgetEmisDryDepFull_MTPA            ', 'GIGCchem',
                          'BudgetEmisDryDepFull_MSA             ', 'GIGCchem',
                          'BudgetEmisDryDepFull_MPN             ', 'GIGCchem',
                          'BudgetEmisDryDepFull_MPAN            ', 'GIGCchem',
                          'BudgetEmisDryDepFull_MP              ', 'GIGCchem',
                          'BudgetEmisDryDepFull_MONITU          ', 'GIGCchem',
                          'BudgetEmisDryDepFull_MONITS          ', 'GIGCchem',
                          'BudgetEmisDryDepFull_MONITA          ', 'GIGCchem',
                          'BudgetEmisDryDepFull_MOH             ', 'GIGCchem',
                          'BudgetEmisDryDepFull_MGLY            ', 'GIGCchem',
                          'BudgetEmisDryDepFull_MENO3           ', 'GIGCchem',
                          'BudgetEmisDryDepFull_MEK             ', 'GIGCchem',
                          'BudgetEmisDryDepFull_MCRHP           ', 'GIGCchem',
                          'BudgetEmisDryDepFull_MCRHNB          ', 'GIGCchem',
                          'BudgetEmisDryDepFull_MCRHN           ', 'GIGCchem',
                          'BudgetEmisDryDepFull_MCRENOL         ', 'GIGCchem',
                          'BudgetEmisDryDepFull_MCRDH           ', 'GIGCchem',
                          'BudgetEmisDryDepFull_MAP             ', 'GIGCchem',
                          'BudgetEmisDryDepFull_MACR1OOH        ', 'GIGCchem',
                          'BudgetEmisDryDepFull_MACR            ', 'GIGCchem',
                          'BudgetEmisDryDepFull_LVOCOA          ', 'GIGCchem',
                          'BudgetEmisDryDepFull_LVOC            ', 'GIGCchem',
                          'BudgetEmisDryDepFull_LIMO            ', 'GIGCchem',
                          'BudgetEmisDryDepFull_ITHN            ', 'GIGCchem',
                          'BudgetEmisDryDepFull_ITCN            ', 'GIGCchem',
                          'BudgetEmisDryDepFull_ISOP            ', 'GIGCchem',
                          'BudgetEmisDryDepFull_ISALC           ', 'GIGCchem',
                          'BudgetEmisDryDepFull_ISALA           ', 'GIGCchem',
                          'BudgetEmisDryDepFull_IPRNO3          ', 'GIGCchem',
                          'BudgetEmisDryDepFull_IONO2           ', 'GIGCchem',
                          'BudgetEmisDryDepFull_IONO            ', 'GIGCchem',
                          'BudgetEmisDryDepFull_IONITA          ', 'GIGCchem',
                          'BudgetEmisDryDepFull_IO              ', 'GIGCchem',
                          'BudgetEmisDryDepFull_INPD            ', 'GIGCchem',
                          'BudgetEmisDryDepFull_INPB            ', 'GIGCchem',
                          'BudgetEmisDryDepFull_INO             ', 'GIGCchem',
                          'BudgetEmisDryDepFull_INDIOL          ', 'GIGCchem',
                          'BudgetEmisDryDepFull_IHN4            ', 'GIGCchem',
                          'BudgetEmisDryDepFull_IHN3            ', 'GIGCchem',
                          'BudgetEmisDryDepFull_IHN2            ', 'GIGCchem',
                          'BudgetEmisDryDepFull_IHN1            ', 'GIGCchem',
                          'BudgetEmisDryDepFull_IEPOXD          ', 'GIGCchem',
                          'BudgetEmisDryDepFull_IEPOXB          ', 'GIGCchem',
                          'BudgetEmisDryDepFull_IEPOXA          ', 'GIGCchem',
                          'BudgetEmisDryDepFull_IDN             ', 'GIGCchem',
                          'BudgetEmisDryDepFull_IDHPE           ', 'GIGCchem',
                          'BudgetEmisDryDepFull_IDHDP           ', 'GIGCchem',
                          'BudgetEmisDryDepFull_IDCHP           ', 'GIGCchem',
                          'BudgetEmisDryDepFull_IDC             ', 'GIGCchem',
                          'BudgetEmisDryDepFull_ICPDH           ', 'GIGCchem',
                          'BudgetEmisDryDepFull_ICN             ', 'GIGCchem',
                          'BudgetEmisDryDepFull_ICl             ', 'GIGCchem',
                          'BudgetEmisDryDepFull_ICHE            ', 'GIGCchem',
                          'BudgetEmisDryDepFull_IBr             ', 'GIGCchem',
                          'BudgetEmisDryDepFull_I2O4            ', 'GIGCchem',
                          'BudgetEmisDryDepFull_I2O3            ', 'GIGCchem',
                          'BudgetEmisDryDepFull_I2O2            ', 'GIGCchem',
                          'BudgetEmisDryDepFull_I2              ', 'GIGCchem',
                          'BudgetEmisDryDepFull_I               ', 'GIGCchem',
                          'BudgetEmisDryDepFull_HPETHNL         ', 'GIGCchem',
                          'BudgetEmisDryDepFull_HPALD4          ', 'GIGCchem',
                          'BudgetEmisDryDepFull_HPALD3          ', 'GIGCchem',
                          'BudgetEmisDryDepFull_HPALD2          ', 'GIGCchem',
                          'BudgetEmisDryDepFull_HPALD1          ', 'GIGCchem',
                          'BudgetEmisDryDepFull_HONIT           ', 'GIGCchem',
                          'BudgetEmisDryDepFull_HOI             ', 'GIGCchem',
                          'BudgetEmisDryDepFull_HOCl            ', 'GIGCchem',
                          'BudgetEmisDryDepFull_HOBr            ', 'GIGCchem',
                          'BudgetEmisDryDepFull_HNO4            ', 'GIGCchem',
                          'BudgetEmisDryDepFull_HNO3            ', 'GIGCchem',
                          'BudgetEmisDryDepFull_HNO2            ', 'GIGCchem',
                          'BudgetEmisDryDepFull_HMML            ', 'GIGCchem',
                          'BudgetEmisDryDepFull_HMHP            ', 'GIGCchem',
                          'BudgetEmisDryDepFull_HI              ', 'GIGCchem',
                          'BudgetEmisDryDepFull_HCOOH           ', 'GIGCchem',
                          'BudgetEmisDryDepFull_HCl             ', 'GIGCchem',
                          'BudgetEmisDryDepFull_HCFC22          ', 'GIGCchem',
                          'BudgetEmisDryDepFull_HCFC142B        ', 'GIGCchem',
                          'BudgetEmisDryDepFull_HCFC141B        ', 'GIGCchem',
                          'BudgetEmisDryDepFull_HCFC123         ', 'GIGCchem',
                          'BudgetEmisDryDepFull_HC5A            ', 'GIGCchem',
                          'BudgetEmisDryDepFull_HBr             ', 'GIGCchem',
                          'BudgetEmisDryDepFull_HAC             ', 'GIGCchem',
                          'BudgetEmisDryDepFull_H2O2            ', 'GIGCchem',
                          'BudgetEmisDryDepFull_H2O             ', 'GIGCchem',
                          'BudgetEmisDryDepFull_H2402           ', 'GIGCchem',
                          'BudgetEmisDryDepFull_H1301           ', 'GIGCchem',
                          'BudgetEmisDryDepFull_H1211           ', 'GIGCchem',
                          'BudgetEmisDryDepFull_GLYX            ', 'GIGCchem',
                          'BudgetEmisDryDepFull_GLYC            ', 'GIGCchem',
                          'BudgetEmisDryDepFull_ETP             ', 'GIGCchem',
                          'BudgetEmisDryDepFull_ETNO3           ', 'GIGCchem',
                          'BudgetEmisDryDepFull_ETHLN           ', 'GIGCchem',
                          'BudgetEmisDryDepFull_EOH             ', 'GIGCchem',
                          'BudgetEmisDryDepFull_DST4            ', 'GIGCchem',
                          'BudgetEmisDryDepFull_DST3            ', 'GIGCchem',
                          'BudgetEmisDryDepFull_DST2            ', 'GIGCchem',
                          'BudgetEmisDryDepFull_DST1            ', 'GIGCchem',
                          'BudgetEmisDryDepFull_DMS             ', 'GIGCchem',
                          'BudgetEmisDryDepFull_CO              ', 'GIGCchem',
                          'BudgetEmisDryDepFull_ClOO            ', 'GIGCchem',
                          'BudgetEmisDryDepFull_ClO             ', 'GIGCchem',
                          'BudgetEmisDryDepFull_ClNO3           ', 'GIGCchem',
                          'BudgetEmisDryDepFull_ClNO2           ', 'GIGCchem',
                          'BudgetEmisDryDepFull_Cl2O2           ', 'GIGCchem',
                          'BudgetEmisDryDepFull_Cl2             ', 'GIGCchem',
                          'BudgetEmisDryDepFull_Cl              ', 'GIGCchem',
                          'BudgetEmisDryDepFull_CHCl3           ', 'GIGCchem',
                          'BudgetEmisDryDepFull_CHBr3           ', 'GIGCchem',
                          'BudgetEmisDryDepFull_CH4             ', 'GIGCchem',
                          'BudgetEmisDryDepFull_CH3I            ', 'GIGCchem',
                          'BudgetEmisDryDepFull_CH3Cl           ', 'GIGCchem',
                          'BudgetEmisDryDepFull_CH3CCl3         ', 'GIGCchem',
                          'BudgetEmisDryDepFull_CH3Br           ', 'GIGCchem',
                          'BudgetEmisDryDepFull_CH2O            ', 'GIGCchem',
                          'BudgetEmisDryDepFull_CH2ICl          ', 'GIGCchem',
                          'BudgetEmisDryDepFull_CH2IBr          ', 'GIGCchem',
                          'BudgetEmisDryDepFull_CH2I2           ', 'GIGCchem',
                          'BudgetEmisDryDepFull_CH2Cl2          ', 'GIGCchem',
                          'BudgetEmisDryDepFull_CH2Br2          ', 'GIGCchem',
                          'BudgetEmisDryDepFull_CFC12           ', 'GIGCchem',
                          'BudgetEmisDryDepFull_CFC115          ', 'GIGCchem',
                          'BudgetEmisDryDepFull_CFC114          ', 'GIGCchem',
                          'BudgetEmisDryDepFull_CFC113          ', 'GIGCchem',
                          'BudgetEmisDryDepFull_CFC11           ', 'GIGCchem',
                          'BudgetEmisDryDepFull_CCl4            ', 'GIGCchem',
                          'BudgetEmisDryDepFull_C3H8            ', 'GIGCchem',
                          'BudgetEmisDryDepFull_C2H6            ', 'GIGCchem',
                          'BudgetEmisDryDepFull_BrSALC          ', 'GIGCchem',
                          'BudgetEmisDryDepFull_BrSALA          ', 'GIGCchem',
                          'BudgetEmisDryDepFull_BrO             ', 'GIGCchem',
                          'BudgetEmisDryDepFull_BrNO3           ', 'GIGCchem',
                          'BudgetEmisDryDepFull_BrNO2           ', 'GIGCchem',
                          'BudgetEmisDryDepFull_BrCl            ', 'GIGCchem',
                          'BudgetEmisDryDepFull_Br2             ', 'GIGCchem',
                          'BudgetEmisDryDepFull_Br              ', 'GIGCchem',
                          'BudgetEmisDryDepFull_BENZ            ', 'GIGCchem',
                          'BudgetEmisDryDepFull_BCPO            ', 'GIGCchem',
                          'BudgetEmisDryDepFull_BCPI            ', 'GIGCchem',
                          'BudgetEmisDryDepFull_ATOOH           ', 'GIGCchem',
                          'BudgetEmisDryDepFull_ASOG3           ', 'GIGCchem',
                          'BudgetEmisDryDepFull_ASOG2           ', 'GIGCchem',
                          'BudgetEmisDryDepFull_ASOG1           ', 'GIGCchem',
                          'BudgetEmisDryDepFull_ASOAN           ', 'GIGCchem',
                          'BudgetEmisDryDepFull_ASOA3           ', 'GIGCchem',
                          'BudgetEmisDryDepFull_ASOA2           ', 'GIGCchem',
                          'BudgetEmisDryDepFull_ASOA1           ', 'GIGCchem',
                          'BudgetEmisDryDepFull_ALK4            ', 'GIGCchem',
                          'BudgetEmisDryDepFull_ALD2            ', 'GIGCchem',
                          'BudgetEmisDryDepFull_AERI            ', 'GIGCchem',
                          'BudgetEmisDryDepFull_ACTA            ', 'GIGCchem',
                          'BudgetEmisDryDepFull_ACET            ', 'GIGCchem',
                          'BudgetEmisDryDepTrop_XYLE            ', 'GIGCchem',
                          'BudgetEmisDryDepTrop_TSOG3           ', 'GIGCchem',
                          'BudgetEmisDryDepTrop_TSOG2           ', 'GIGCchem',
                          'BudgetEmisDryDepTrop_TSOG1           ', 'GIGCchem',
                          'BudgetEmisDryDepTrop_TSOG0           ', 'GIGCchem',
                          'BudgetEmisDryDepTrop_TSOA3           ', 'GIGCchem',
                          'BudgetEmisDryDepTrop_TSOA2           ', 'GIGCchem',
                          'BudgetEmisDryDepTrop_TSOA1           ', 'GIGCchem',
                          'BudgetEmisDryDepTrop_TSOA0           ', 'GIGCchem',
                          'BudgetEmisDryDepTrop_TOLU            ', 'GIGCchem',
                          'BudgetEmisDryDepTrop_SOAS            ', 'GIGCchem',
                          'BudgetEmisDryDepTrop_SOAP            ', 'GIGCchem',
                          'BudgetEmisDryDepTrop_SOAIE           ', 'GIGCchem',
                          'BudgetEmisDryDepTrop_SOAGX           ', 'GIGCchem',
                          'BudgetEmisDryDepTrop_SO4s            ', 'GIGCchem',
                          'BudgetEmisDryDepTrop_SO4             ', 'GIGCchem',
                          'BudgetEmisDryDepTrop_SO2             ', 'GIGCchem',
                          'BudgetEmisDryDepTrop_SALCCL          ', 'GIGCchem',
                          'BudgetEmisDryDepTrop_SALCAL          ', 'GIGCchem',
                          'BudgetEmisDryDepTrop_SALC            ', 'GIGCchem',
                          'BudgetEmisDryDepTrop_SALACL          ', 'GIGCchem',
                          'BudgetEmisDryDepTrop_SALAAL          ', 'GIGCchem',
                          'BudgetEmisDryDepTrop_SALA            ', 'GIGCchem',
                          'BudgetEmisDryDepTrop_RP              ', 'GIGCchem',
                          'BudgetEmisDryDepTrop_RIPD            ', 'GIGCchem',
                          'BudgetEmisDryDepTrop_RIPC            ', 'GIGCchem',
                          'BudgetEmisDryDepTrop_RIPB            ', 'GIGCchem',
                          'BudgetEmisDryDepTrop_RIPA            ', 'GIGCchem',
                          'BudgetEmisDryDepTrop_RCHO            ', 'GIGCchem',
                          'BudgetEmisDryDepTrop_RB3P            ', 'GIGCchem',
                          'BudgetEmisDryDepTrop_RA3P            ', 'GIGCchem',
                          'BudgetEmisDryDepTrop_R4P             ', 'GIGCchem',
                          'BudgetEmisDryDepTrop_R4N2            ', 'GIGCchem',
                          'BudgetEmisDryDepTrop_PYAC            ', 'GIGCchem',
                          'BudgetEmisDryDepTrop_PRPN            ', 'GIGCchem',
                          'BudgetEmisDryDepTrop_PRPE            ', 'GIGCchem',
                          'BudgetEmisDryDepTrop_PROPNN          ', 'GIGCchem',
                          'BudgetEmisDryDepTrop_PPN             ', 'GIGCchem',
                          'BudgetEmisDryDepTrop_PP              ', 'GIGCchem',
                          'BudgetEmisDryDepTrop_PIP             ', 'GIGCchem',
                          'BudgetEmisDryDepTrop_pFe             ', 'GIGCchem',
                          'BudgetEmisDryDepTrop_PAN             ', 'GIGCchem',
                          'BudgetEmisDryDepTrop_OIO             ', 'GIGCchem',
                          'BudgetEmisDryDepTrop_OCS             ', 'GIGCchem',
                          'BudgetEmisDryDepTrop_OCPO            ', 'GIGCchem',
                          'BudgetEmisDryDepTrop_OCPI            ', 'GIGCchem',
                          'BudgetEmisDryDepTrop_OClO            ', 'GIGCchem',
                          'BudgetEmisDryDepTrop_O3              ', 'GIGCchem',
                          'BudgetEmisDryDepTrop_NPRNO3          ', 'GIGCchem',
                          'BudgetEmisDryDepTrop_NO3             ', 'GIGCchem',
                          'BudgetEmisDryDepTrop_NO2             ', 'GIGCchem',
                          'BudgetEmisDryDepTrop_NO              ', 'GIGCchem',
                          'BudgetEmisDryDepTrop_NITs            ', 'GIGCchem',
                          'BudgetEmisDryDepTrop_NIT             ', 'GIGCchem',
                          'BudgetEmisDryDepTrop_NH4             ', 'GIGCchem',
                          'BudgetEmisDryDepTrop_NH3             ', 'GIGCchem',
                          'BudgetEmisDryDepTrop_N2O5            ', 'GIGCchem',
                          'BudgetEmisDryDepTrop_N2O             ', 'GIGCchem',
                          'BudgetEmisDryDepTrop_MVKPC           ', 'GIGCchem',
                          'BudgetEmisDryDepTrop_MVKN            ', 'GIGCchem',
                          'BudgetEmisDryDepTrop_MVKHP           ', 'GIGCchem',
                          'BudgetEmisDryDepTrop_MVKHCB          ', 'GIGCchem',
                          'BudgetEmisDryDepTrop_MVKHC           ', 'GIGCchem',
                          'BudgetEmisDryDepTrop_MVKDH           ', 'GIGCchem',
                          'BudgetEmisDryDepTrop_MVK             ', 'GIGCchem',
                          'BudgetEmisDryDepTrop_MTPO            ', 'GIGCchem',
                          'BudgetEmisDryDepTrop_MTPA            ', 'GIGCchem',
                          'BudgetEmisDryDepTrop_MSA             ', 'GIGCchem',
                          'BudgetEmisDryDepTrop_MPN             ', 'GIGCchem',
                          'BudgetEmisDryDepTrop_MPAN            ', 'GIGCchem',
                          'BudgetEmisDryDepTrop_MP              ', 'GIGCchem',
                          'BudgetEmisDryDepTrop_MONITU          ', 'GIGCchem',
                          'BudgetEmisDryDepTrop_MONITS          ', 'GIGCchem',
                          'BudgetEmisDryDepTrop_MONITA          ', 'GIGCchem',
                          'BudgetEmisDryDepTrop_MOH             ', 'GIGCchem',
                          'BudgetEmisDryDepTrop_MGLY            ', 'GIGCchem',
                          'BudgetEmisDryDepTrop_MENO3           ', 'GIGCchem',
                          'BudgetEmisDryDepTrop_MEK             ', 'GIGCchem',
                          'BudgetEmisDryDepTrop_MCRHP           ', 'GIGCchem',
                          'BudgetEmisDryDepTrop_MCRHNB          ', 'GIGCchem',
                          'BudgetEmisDryDepTrop_MCRHN           ', 'GIGCchem',
                          'BudgetEmisDryDepTrop_MCRENOL         ', 'GIGCchem',
                          'BudgetEmisDryDepTrop_MCRDH           ', 'GIGCchem',
                          'BudgetEmisDryDepTrop_MAP             ', 'GIGCchem',
                          'BudgetEmisDryDepTrop_MACR1OOH        ', 'GIGCchem',
                          'BudgetEmisDryDepTrop_MACR            ', 'GIGCchem',
                          'BudgetEmisDryDepTrop_LVOCOA          ', 'GIGCchem',
                          'BudgetEmisDryDepTrop_LVOC            ', 'GIGCchem',
                          'BudgetEmisDryDepTrop_LIMO            ', 'GIGCchem',
                          'BudgetEmisDryDepTrop_ITHN            ', 'GIGCchem',
                          'BudgetEmisDryDepTrop_ITCN            ', 'GIGCchem',
                          'BudgetEmisDryDepTrop_ISOP            ', 'GIGCchem',
                          'BudgetEmisDryDepTrop_ISALC           ', 'GIGCchem',
                          'BudgetEmisDryDepTrop_ISALA           ', 'GIGCchem',
                          'BudgetEmisDryDepTrop_IPRNO3          ', 'GIGCchem',
                          'BudgetEmisDryDepTrop_IONO2           ', 'GIGCchem',
                          'BudgetEmisDryDepTrop_IONO            ', 'GIGCchem',
                          'BudgetEmisDryDepTrop_IONITA          ', 'GIGCchem',
                          'BudgetEmisDryDepTrop_IO              ', 'GIGCchem',
                          'BudgetEmisDryDepTrop_INPD            ', 'GIGCchem',
                          'BudgetEmisDryDepTrop_INPB            ', 'GIGCchem',
                          'BudgetEmisDryDepTrop_INO             ', 'GIGCchem',
                          'BudgetEmisDryDepTrop_INDIOL          ', 'GIGCchem',
                          'BudgetEmisDryDepTrop_IHN4            ', 'GIGCchem',
                          'BudgetEmisDryDepTrop_IHN3            ', 'GIGCchem',
                          'BudgetEmisDryDepTrop_IHN2            ', 'GIGCchem',
                          'BudgetEmisDryDepTrop_IHN1            ', 'GIGCchem',
                          'BudgetEmisDryDepTrop_IEPOXD          ', 'GIGCchem',
                          'BudgetEmisDryDepTrop_IEPOXB          ', 'GIGCchem',
                          'BudgetEmisDryDepTrop_IEPOXA          ', 'GIGCchem',
                          'BudgetEmisDryDepTrop_IDN             ', 'GIGCchem',
                          'BudgetEmisDryDepTrop_IDHPE           ', 'GIGCchem',
                          'BudgetEmisDryDepTrop_IDHDP           ', 'GIGCchem',
                          'BudgetEmisDryDepTrop_IDCHP           ', 'GIGCchem',
                          'BudgetEmisDryDepTrop_IDC             ', 'GIGCchem',
                          'BudgetEmisDryDepTrop_ICPDH           ', 'GIGCchem',
                          'BudgetEmisDryDepTrop_ICN             ', 'GIGCchem',
                          'BudgetEmisDryDepTrop_ICl             ', 'GIGCchem',
                          'BudgetEmisDryDepTrop_ICHE            ', 'GIGCchem',
                          'BudgetEmisDryDepTrop_IBr             ', 'GIGCchem',
                          'BudgetEmisDryDepTrop_I2O4            ', 'GIGCchem',
                          'BudgetEmisDryDepTrop_I2O3            ', 'GIGCchem',
                          'BudgetEmisDryDepTrop_I2O2            ', 'GIGCchem',
                          'BudgetEmisDryDepTrop_I2              ', 'GIGCchem',
                          'BudgetEmisDryDepTrop_I               ', 'GIGCchem',
                          'BudgetEmisDryDepTrop_HPETHNL         ', 'GIGCchem',
                          'BudgetEmisDryDepTrop_HPALD4          ', 'GIGCchem',
                          'BudgetEmisDryDepTrop_HPALD3          ', 'GIGCchem',
                          'BudgetEmisDryDepTrop_HPALD2          ', 'GIGCchem',
                          'BudgetEmisDryDepTrop_HPALD1          ', 'GIGCchem',
                          'BudgetEmisDryDepTrop_HONIT           ', 'GIGCchem',
                          'BudgetEmisDryDepTrop_HOI             ', 'GIGCchem',
                          'BudgetEmisDryDepTrop_HOCl            ', 'GIGCchem',
                          'BudgetEmisDryDepTrop_HOBr            ', 'GIGCchem',
                          'BudgetEmisDryDepTrop_HNO4            ', 'GIGCchem',
                          'BudgetEmisDryDepTrop_HNO3            ', 'GIGCchem',
                          'BudgetEmisDryDepTrop_HNO2            ', 'GIGCchem',
                          'BudgetEmisDryDepTrop_HMML            ', 'GIGCchem',
                          'BudgetEmisDryDepTrop_HMHP            ', 'GIGCchem',
                          'BudgetEmisDryDepTrop_HI              ', 'GIGCchem',
                          'BudgetEmisDryDepTrop_HCOOH           ', 'GIGCchem',
                          'BudgetEmisDryDepTrop_HCl             ', 'GIGCchem',
                          'BudgetEmisDryDepTrop_HCFC22          ', 'GIGCchem',
                          'BudgetEmisDryDepTrop_HCFC142B        ', 'GIGCchem',
                          'BudgetEmisDryDepTrop_HCFC141B        ', 'GIGCchem',
                          'BudgetEmisDryDepTrop_HCFC123         ', 'GIGCchem',
                          'BudgetEmisDryDepTrop_HC5A            ', 'GIGCchem',
                          'BudgetEmisDryDepTrop_HBr             ', 'GIGCchem',
                          'BudgetEmisDryDepTrop_HAC             ', 'GIGCchem',
                          'BudgetEmisDryDepTrop_H2O2            ', 'GIGCchem',
                          'BudgetEmisDryDepTrop_H2O             ', 'GIGCchem',
                          'BudgetEmisDryDepTrop_H2402           ', 'GIGCchem',
                          'BudgetEmisDryDepTrop_H1301           ', 'GIGCchem',
                          'BudgetEmisDryDepTrop_H1211           ', 'GIGCchem',
                          'BudgetEmisDryDepTrop_GLYX            ', 'GIGCchem',
                          'BudgetEmisDryDepTrop_GLYC            ', 'GIGCchem',
                          'BudgetEmisDryDepTrop_ETP             ', 'GIGCchem',
                          'BudgetEmisDryDepTrop_ETNO3           ', 'GIGCchem',
                          'BudgetEmisDryDepTrop_ETHLN           ', 'GIGCchem',
                          'BudgetEmisDryDepTrop_EOH             ', 'GIGCchem',
                          'BudgetEmisDryDepTrop_DST4            ', 'GIGCchem',
                          'BudgetEmisDryDepTrop_DST3            ', 'GIGCchem',
                          'BudgetEmisDryDepTrop_DST2            ', 'GIGCchem',
                          'BudgetEmisDryDepTrop_DST1            ', 'GIGCchem',
                          'BudgetEmisDryDepTrop_DMS             ', 'GIGCchem',
                          'BudgetEmisDryDepTrop_CO              ', 'GIGCchem',
                          'BudgetEmisDryDepTrop_ClOO            ', 'GIGCchem',
                          'BudgetEmisDryDepTrop_ClO             ', 'GIGCchem',
                          'BudgetEmisDryDepTrop_ClNO3           ', 'GIGCchem',
                          'BudgetEmisDryDepTrop_ClNO2           ', 'GIGCchem',
                          'BudgetEmisDryDepTrop_Cl2O2           ', 'GIGCchem',
                          'BudgetEmisDryDepTrop_Cl2             ', 'GIGCchem',
                          'BudgetEmisDryDepTrop_Cl              ', 'GIGCchem',
                          'BudgetEmisDryDepTrop_CHCl3           ', 'GIGCchem',
                          'BudgetEmisDryDepTrop_CHBr3           ', 'GIGCchem',
                          'BudgetEmisDryDepTrop_CH4             ', 'GIGCchem',
                          'BudgetEmisDryDepTrop_CH3I            ', 'GIGCchem',
                          'BudgetEmisDryDepTrop_CH3Cl           ', 'GIGCchem',
                          'BudgetEmisDryDepTrop_CH3CCl3         ', 'GIGCchem',
                          'BudgetEmisDryDepTrop_CH3Br           ', 'GIGCchem',
                          'BudgetEmisDryDepTrop_CH2O            ', 'GIGCchem',
                          'BudgetEmisDryDepTrop_CH2ICl          ', 'GIGCchem',
                          'BudgetEmisDryDepTrop_CH2IBr          ', 'GIGCchem',
                          'BudgetEmisDryDepTrop_CH2I2           ', 'GIGCchem',
                          'BudgetEmisDryDepTrop_CH2Cl2          ', 'GIGCchem',
                          'BudgetEmisDryDepTrop_CH2Br2          ', 'GIGCchem',
                          'BudgetEmisDryDepTrop_CFC12           ', 'GIGCchem',
                          'BudgetEmisDryDepTrop_CFC115          ', 'GIGCchem',
                          'BudgetEmisDryDepTrop_CFC114          ', 'GIGCchem',
                          'BudgetEmisDryDepTrop_CFC113          ', 'GIGCchem',
                          'BudgetEmisDryDepTrop_CFC11           ', 'GIGCchem',
                          'BudgetEmisDryDepTrop_CCl4            ', 'GIGCchem',
                          'BudgetEmisDryDepTrop_C3H8            ', 'GIGCchem',
                          'BudgetEmisDryDepTrop_C2H6            ', 'GIGCchem',
                          'BudgetEmisDryDepTrop_BrSALC          ', 'GIGCchem',
                          'BudgetEmisDryDepTrop_BrSALA          ', 'GIGCchem',
                          'BudgetEmisDryDepTrop_BrO             ', 'GIGCchem',
                          'BudgetEmisDryDepTrop_BrNO3           ', 'GIGCchem',
                          'BudgetEmisDryDepTrop_BrNO2           ', 'GIGCchem',
                          'BudgetEmisDryDepTrop_BrCl            ', 'GIGCchem',
                          'BudgetEmisDryDepTrop_Br2             ', 'GIGCchem',
                          'BudgetEmisDryDepTrop_Br              ', 'GIGCchem',
                          'BudgetEmisDryDepTrop_BENZ            ', 'GIGCchem',
                          'BudgetEmisDryDepTrop_BCPO            ', 'GIGCchem',
                          'BudgetEmisDryDepTrop_BCPI            ', 'GIGCchem',
                          'BudgetEmisDryDepTrop_ATOOH           ', 'GIGCchem',
                          'BudgetEmisDryDepTrop_ASOG3           ', 'GIGCchem',
                          'BudgetEmisDryDepTrop_ASOG2           ', 'GIGCchem',
                          'BudgetEmisDryDepTrop_ASOG1           ', 'GIGCchem',
                          'BudgetEmisDryDepTrop_ASOAN           ', 'GIGCchem',
                          'BudgetEmisDryDepTrop_ASOA3           ', 'GIGCchem',
                          'BudgetEmisDryDepTrop_ASOA2           ', 'GIGCchem',
                          'BudgetEmisDryDepTrop_ASOA1           ', 'GIGCchem',
                          'BudgetEmisDryDepTrop_ALK4            ', 'GIGCchem',
                          'BudgetEmisDryDepTrop_ALD2            ', 'GIGCchem',
                          'BudgetEmisDryDepTrop_AERI            ', 'GIGCchem',
                          'BudgetEmisDryDepTrop_ACTA            ', 'GIGCchem',
                          'BudgetEmisDryDepTrop_ACET            ', 'GIGCchem',
                          'BudgetEmisDryDepPBL_XYLE            ', 'GIGCchem',
                          'BudgetEmisDryDepPBL_TSOG3           ', 'GIGCchem',
                          'BudgetEmisDryDepPBL_TSOG2           ', 'GIGCchem',
                          'BudgetEmisDryDepPBL_TSOG1           ', 'GIGCchem',
                          'BudgetEmisDryDepPBL_TSOG0           ', 'GIGCchem',
                          'BudgetEmisDryDepPBL_TSOA3           ', 'GIGCchem',
                          'BudgetEmisDryDepPBL_TSOA2           ', 'GIGCchem',
                          'BudgetEmisDryDepPBL_TSOA1           ', 'GIGCchem',
                          'BudgetEmisDryDepPBL_TSOA0           ', 'GIGCchem',
                          'BudgetEmisDryDepPBL_TOLU            ', 'GIGCchem',
                          'BudgetEmisDryDepPBL_SOAS            ', 'GIGCchem',
                          'BudgetEmisDryDepPBL_SOAP            ', 'GIGCchem',
                          'BudgetEmisDryDepPBL_SOAIE           ', 'GIGCchem',
                          'BudgetEmisDryDepPBL_SOAGX           ', 'GIGCchem',
                          'BudgetEmisDryDepPBL_SO4s            ', 'GIGCchem',
                          'BudgetEmisDryDepPBL_SO4             ', 'GIGCchem',
                          'BudgetEmisDryDepPBL_SO2             ', 'GIGCchem',
                          'BudgetEmisDryDepPBL_SALCCL          ', 'GIGCchem',
                          'BudgetEmisDryDepPBL_SALCAL          ', 'GIGCchem',
                          'BudgetEmisDryDepPBL_SALC            ', 'GIGCchem',
                          'BudgetEmisDryDepPBL_SALACL          ', 'GIGCchem',
                          'BudgetEmisDryDepPBL_SALAAL          ', 'GIGCchem',
                          'BudgetEmisDryDepPBL_SALA            ', 'GIGCchem',
                          'BudgetEmisDryDepPBL_RP              ', 'GIGCchem',
                          'BudgetEmisDryDepPBL_RIPD            ', 'GIGCchem',
                          'BudgetEmisDryDepPBL_RIPC            ', 'GIGCchem',
                          'BudgetEmisDryDepPBL_RIPB            ', 'GIGCchem',
                          'BudgetEmisDryDepPBL_RIPA            ', 'GIGCchem',
                          'BudgetEmisDryDepPBL_RCHO            ', 'GIGCchem',
                          'BudgetEmisDryDepPBL_RB3P            ', 'GIGCchem',
                          'BudgetEmisDryDepPBL_RA3P            ', 'GIGCchem',
                          'BudgetEmisDryDepPBL_R4P             ', 'GIGCchem',
                          'BudgetEmisDryDepPBL_R4N2            ', 'GIGCchem',
                          'BudgetEmisDryDepPBL_PYAC            ', 'GIGCchem',
[...]
                          'WetLossConv_SO2           ', 'GIGCchem',
                          'WetLossConv_SO4           ', 'GIGCchem',
                          'WetLossConv_SO4s          ', 'GIGCchem',
                          'WetLossConv_SOAGX         ', 'GIGCchem',
                          'WetLossConv_SOAIE         ', 'GIGCchem',
                          'WetLossConv_SOAS          ', 'GIGCchem',
                          'WetLossConv_TSOA0         ', 'GIGCchem',
                          'WetLossConv_TSOA1         ', 'GIGCchem',
                          'WetLossConv_TSOA2         ', 'GIGCchem',
                          'WetLossConv_TSOA3         ', 'GIGCchem',
                          'WetLossConv_TSOG0         ', 'GIGCchem',
                          'WetLossConv_TSOG1         ', 'GIGCchem',
                          'WetLossConv_TSOG2         ', 'GIGCchem',
                          'WetLossConv_TSOG3         ', 'GIGCchem',
                          'WetLossConvFrac_ACTA      ', 'GIGCchem',
                          'WetLossConvFrac_AERI      ', 'GIGCchem',
                          'WetLossConvFrac_ALD2      ', 'GIGCchem',
                          'WetLossConvFrac_ASOA1     ', 'GIGCchem',
                          'WetLossConvFrac_ASOA2     ', 'GIGCchem',
                          'WetLossConvFrac_ASOA3     ', 'GIGCchem',
                          'WetLossConvFrac_ASOAN     ', 'GIGCchem',
                          'WetLossConvFrac_ASOG1     ', 'GIGCchem',
                          'WetLossConvFrac_ASOG2     ', 'GIGCchem',
                          'WetLossConvFrac_ASOG3     ', 'GIGCchem',
                          'WetLossConvFrac_ATOOH     ', 'GIGCchem',
                          'WetLossConvFrac_BCPI      ', 'GIGCchem',
                          'WetLossConvFrac_BCPO      ', 'GIGCchem',
                          'WetLossConvFrac_Br2       ', 'GIGCchem',
                          'WetLossConvFrac_BrSALA    ', 'GIGCchem',
                          'WetLossConvFrac_BrSALC    ', 'GIGCchem',
                          'WetLossConvFrac_CH2O      ', 'GIGCchem',
                          'WetLossConvFrac_DST1      ', 'GIGCchem',
                          'WetLossConvFrac_DST2      ', 'GIGCchem',
                          'WetLossConvFrac_DST3      ', 'GIGCchem',
                          'WetLossConvFrac_DST4      ', 'GIGCchem',
                          'WetLossConvFrac_EOH       ', 'GIGCchem',
                          'WetLossConvFrac_ETHLN     ', 'GIGCchem',
                          'WetLossConvFrac_ETP       ', 'GIGCchem',
                          'WetLossConvFrac_GLYC      ', 'GIGCchem',
                          'WetLossConvFrac_GLYX      ', 'GIGCchem',
                          'WetLossConvFrac_H2O2      ', 'GIGCchem',
                          'WetLossConvFrac_HAC       ', 'GIGCchem',
                          'WetLossConvFrac_HBr       ', 'GIGCchem',
                          'WetLossConvFrac_HC5A      ', 'GIGCchem',
                          'WetLossConvFrac_HCl       ', 'GIGCchem',
                          'WetLossConvFrac_HCOOH     ', 'GIGCchem',
                          'WetLossConvFrac_HI        ', 'GIGCchem',
                          'WetLossConvFrac_HMHP      ', 'GIGCchem',
                          'WetLossConvFrac_HMML      ', 'GIGCchem',
                          'WetLossConvFrac_HNO3      ', 'GIGCchem',
                          'WetLossConvFrac_HOBr      ', 'GIGCchem',
                          'WetLossConvFrac_HOCl      ', 'GIGCchem',
                          'WetLossConvFrac_HOI       ', 'GIGCchem',
                          'WetLossConvFrac_HONIT     ', 'GIGCchem',
                          'WetLossConvFrac_HPETHNL   ', 'GIGCchem',
                          'WetLossConvFrac_I2        ', 'GIGCchem',
                          'WetLossConvFrac_I2O2      ', 'GIGCchem',
                          'WetLossConvFrac_I2O3      ', 'GIGCchem',
                          'WetLossConvFrac_I2O4      ', 'GIGCchem',
                          'WetLossConvFrac_IBr       ', 'GIGCchem',
                          'WetLossConvFrac_ICHE      ', 'GIGCchem',
                          'WetLossConvFrac_ICl       ', 'GIGCchem',
                          'WetLossConvFrac_ICN       ', 'GIGCchem',
                          'WetLossConvFrac_ICPDH     ', 'GIGCchem',
                          'WetLossConvFrac_IDCHP     ', 'GIGCchem',
                          'WetLossConvFrac_IDHDP     ', 'GIGCchem',
                          'WetLossConvFrac_IDHPE     ', 'GIGCchem',
                          'WetLossConvFrac_IDN       ', 'GIGCchem',
                          'WetLossConvFrac_IEPOXA    ', 'GIGCchem',
                          'WetLossConvFrac_IEPOXB    ', 'GIGCchem',
                          'WetLossConvFrac_IEPOXD    ', 'GIGCchem',
                          'WetLossConvFrac_IHN1      ', 'GIGCchem',
                          'WetLossConvFrac_IHN2      ', 'GIGCchem',
                          'WetLossConvFrac_IHN3      ', 'GIGCchem',
                          'WetLossConvFrac_IHN4      ', 'GIGCchem',
                          'WetLossConvFrac_INDIOL    ', 'GIGCchem',
                          'WetLossConvFrac_INPB      ', 'GIGCchem',
                          'WetLossConvFrac_INPD      ', 'GIGCchem',
                          'WetLossConvFrac_IONITA    ', 'GIGCchem',
                          'WetLossConvFrac_IONO2     ', 'GIGCchem',
                          'WetLossConvFrac_IONO      ', 'GIGCchem',
                          'WetLossConvFrac_ISALA     ', 'GIGCchem',
                          'WetLossConvFrac_ISALC     ', 'GIGCchem',
                          'WetLossConvFrac_ITCN      ', 'GIGCchem',
                          'WetLossConvFrac_ITHN      ', 'GIGCchem',
                          'WetLossConvFrac_LIMO      ', 'GIGCchem',
                          'WetLossConvFrac_LVOC      ', 'GIGCchem',
                          'WetLossConvFrac_LVOCOA    ', 'GIGCchem',
                          'WetLossConvFrac_MACR1OOH  ', 'GIGCchem',
                          'WetLossConvFrac_MAP       ', 'GIGCchem',
                          'WetLossConvFrac_MCRDH     ', 'GIGCchem',
                          'WetLossConvFrac_MCRENOL   ', 'GIGCchem',
                          'WetLossConvFrac_MCRHNB    ', 'GIGCchem',
                          'WetLossConvFrac_MCRHN     ', 'GIGCchem',
                          'WetLossConvFrac_MCRHP     ', 'GIGCchem',
                          'WetLossConvFrac_MEK       ', 'GIGCchem',
                          'WetLossConvFrac_MGLY      ', 'GIGCchem',
                          'WetLossConvFrac_MOH       ', 'GIGCchem',
                          'WetLossConvFrac_MONITA    ', 'GIGCchem',
                          'WetLossConvFrac_MONITS    ', 'GIGCchem',
                          'WetLossConvFrac_MONITU    ', 'GIGCchem',
                          'WetLossConvFrac_MPAN      ', 'GIGCchem',
                          'WetLossConvFrac_MP        ', 'GIGCchem',
                          'WetLossConvFrac_MPN       ', 'GIGCchem',
                          'WetLossConvFrac_MSA       ', 'GIGCchem',
                          'WetLossConvFrac_MTPA      ', 'GIGCchem',
                          'WetLossConvFrac_MTPO      ', 'GIGCchem',
                          'WetLossConvFrac_MVKDH     ', 'GIGCchem',
                          'WetLossConvFrac_MVK       ', 'GIGCchem',
                          'WetLossConvFrac_MVKHCB    ', 'GIGCchem',
                          'WetLossConvFrac_MVKHC     ', 'GIGCchem',
                          'WetLossConvFrac_MVKHP     ', 'GIGCchem',
                          'WetLossConvFrac_MVKN      ', 'GIGCchem',
                          'WetLossConvFrac_MVKPC     ', 'GIGCchem',
                          'WetLossConvFrac_NH3       ', 'GIGCchem',
                          'WetLossConvFrac_NH4       ', 'GIGCchem',
                          'WetLossConvFrac_NIT       ', 'GIGCchem',
                          'WetLossConvFrac_NITs      ', 'GIGCchem',
                          'WetLossConvFrac_OCPI      ', 'GIGCchem',
                          'WetLossConvFrac_OCPO      ', 'GIGCchem',
                          'WetLossConvFrac_PAN       ', 'GIGCchem',
                          'WetLossConvFrac_pFe       ', 'GIGCchem',
                          'WetLossConvFrac_PP        ', 'GIGCchem',
                          'WetLossConvFrac_PPN       ', 'GIGCchem',
                          'WetLossConvFrac_PROPNN    ', 'GIGCchem',
                          'WetLossConvFrac_PRPE      ', 'GIGCchem',
                          'WetLossConvFrac_PRPN      ', 'GIGCchem',
                          'WetLossConvFrac_PYAC      ', 'GIGCchem',
                          'WetLossConvFrac_R4N2      ', 'GIGCchem',
                          'WetLossConvFrac_R4P       ', 'GIGCchem',
                          'WetLossConvFrac_RA3P      ', 'GIGCchem',
                          'WetLossConvFrac_RB3P      ', 'GIGCchem',
                          'WetLossConvFrac_RIPA      ', 'GIGCchem',
                          'WetLossConvFrac_RIPB      ', 'GIGCchem',
                          'WetLossConvFrac_RIPC      ', 'GIGCchem',
                          'WetLossConvFrac_RIPD      ', 'GIGCchem',
                          'WetLossConvFrac_RP        ', 'GIGCchem',
                          'WetLossConvFrac_SALA      ', 'GIGCchem',
                          'WetLossConvFrac_SALAAL    ', 'GIGCchem',
                          'WetLossConvFrac_SALACL    ', 'GIGCchem',
                          'WetLossConvFrac_SALC      ', 'GIGCchem',
                          'WetLossConvFrac_SALCAL    ', 'GIGCchem',
                          'WetLossConvFrac_SALCCL    ', 'GIGCchem',
                          'WetLossConvFrac_SO2       ', 'GIGCchem',
                          'WetLossConvFrac_SO4       ', 'GIGCchem',
                          'WetLossConvFrac_SO4s      ', 'GIGCchem',
                          'WetLossConvFrac_SOAGX     ', 'GIGCchem',
                          'WetLossConvFrac_SOAIE     ', 'GIGCchem',
                          'WetLossConvFrac_SOAS      ', 'GIGCchem',
                          'WetLossConvFrac_TSOA0     ', 'GIGCchem',
                          'WetLossConvFrac_TSOA1     ', 'GIGCchem',
                          'WetLossConvFrac_TSOA2     ', 'GIGCchem',
                          'WetLossConvFrac_TSOA3     ', 'GIGCchem',
                          'WetLossConvFrac_TSOG0     ', 'GIGCchem',
                          'WetLossConvFrac_TSOG1     ', 'GIGCchem',
                          'WetLossConvFrac_TSOG2     ', 'GIGCchem',
                          'WetLossConvFrac_TSOG3     ', 'GIGCchem',
::
#==============================================================================
# %%%%% THE WetLossLS COLLECTION %%%%%
#
# Loss of soluble species in large-scale wetdep (i.e. rainout and washout)
#
# Available for all simulations that have soluble species
#==============================================================================
# Loss due to rainout and washout (per deposited species)
  WetLossLS.template:     '%y4%m2%d2_%h2%n2z.nc4',
  WetLossLS.format:       'CFIO',
  WetLossLS.frequency:    010000
  WetLossLS.duration:     010000
  WetLossLS.mode:         'time-averaged'
  WetLossLS.fields:       'WetLossLS_ACTA     ', 'GIGCchem',
                          'WetLossLS_AERI     ', 'GIGCchem',
                          'WetLossLS_ALD2     ', 'GIGCchem',
                          'WetLossLS_ASOA1    ', 'GIGCchem',
                          'WetLossLS_ASOA2    ', 'GIGCchem',
                          'WetLossLS_ASOA3    ', 'GIGCchem',
                          'WetLossLS_ASOAN    ', 'GIGCchem',
                          'WetLossLS_ASOG1    ', 'GIGCchem',
                          'WetLossLS_ASOG2    ', 'GIGCchem',
                          'WetLossLS_ASOG3    ', 'GIGCchem',
                          'WetLossLS_ATOOH    ', 'GIGCchem',
                          'WetLossLS_BCPI     ', 'GIGCchem',
                          'WetLossLS_BCPO     ', 'GIGCchem',
                          'WetLossLS_Br2      ', 'GIGCchem',
                          'WetLossLS_BrSALA   ', 'GIGCchem',
                          'WetLossLS_BrSALC   ', 'GIGCchem',
                          'WetLossLS_CH2O     ', 'GIGCchem',
                          'WetLossLS_DST1     ', 'GIGCchem',
                          'WetLossLS_DST2     ', 'GIGCchem',
                          'WetLossLS_DST3     ', 'GIGCchem',
                          'WetLossLS_DST4     ', 'GIGCchem',
                          'WetLossLS_EOH      ', 'GIGCchem',
                          'WetLossLS_ETHLN    ', 'GIGCchem',
                          'WetLossLS_ETP      ', 'GIGCchem',
                          'WetLossLS_GLYC     ', 'GIGCchem',
                          'WetLossLS_GLYX     ', 'GIGCchem',
                          'WetLossLS_H2O2     ', 'GIGCchem',
                          'WetLossLS_HAC      ', 'GIGCchem',
                          'WetLossLS_HBr      ', 'GIGCchem',
                          'WetLossLS_HC5A     ', 'GIGCchem',
                          'WetLossLS_HCl      ', 'GIGCchem',
                          'WetLossLS_HCOOH    ', 'GIGCchem',
                          'WetLossLS_HI       ', 'GIGCchem',
                          'WetLossLS_HMHP     ', 'GIGCchem',
                          'WetLossLS_HMML     ', 'GIGCchem',
                          'WetLossLS_HNO3     ', 'GIGCchem',
                          'WetLossLS_HOBr     ', 'GIGCchem',
                          'WetLossLS_HOCl     ', 'GIGCchem',
                          'WetLossLS_HOI      ', 'GIGCchem',
                          'WetLossLS_HONIT    ', 'GIGCchem',
                          'WetLossLS_HPETHNL  ', 'GIGCchem',
                          'WetLossLS_I2       ', 'GIGCchem',
                          'WetLossLS_I2O2     ', 'GIGCchem',
                          'WetLossLS_I2O3     ', 'GIGCchem',
                          'WetLossLS_I2O4     ', 'GIGCchem',
                          'WetLossLS_IBr      ', 'GIGCchem',
                          'WetLossLS_ICHE     ', 'GIGCchem',
                          'WetLossLS_ICl      ', 'GIGCchem',
                          'WetLossLS_ICN      ', 'GIGCchem',
                          'WetLossLS_ICPDH    ', 'GIGCchem',
                          'WetLossLS_IDCHP    ', 'GIGCchem',
                          'WetLossLS_IDHDP    ', 'GIGCchem',
                          'WetLossLS_IDHPE    ', 'GIGCchem',
                          'WetLossLS_IDN      ', 'GIGCchem',
                          'WetLossLS_IEPOXA   ', 'GIGCchem',
                          'WetLossLS_IEPOXB   ', 'GIGCchem',
                          'WetLossLS_IEPOXD   ', 'GIGCchem',
                          'WetLossLS_IHN1     ', 'GIGCchem',
                          'WetLossLS_IHN2     ', 'GIGCchem',
                          'WetLossLS_IHN3     ', 'GIGCchem',
                          'WetLossLS_IHN4     ', 'GIGCchem',
                          'WetLossLS_INDIOL   ', 'GIGCchem',
                          'WetLossLS_INPB     ', 'GIGCchem',
                          'WetLossLS_INPD     ', 'GIGCchem',
                          'WetLossLS_IONITA   ', 'GIGCchem',
                          'WetLossLS_IONO2    ', 'GIGCchem',
                          'WetLossLS_IONO     ', 'GIGCchem',
                          'WetLossLS_ISALA    ', 'GIGCchem',
                          'WetLossLS_ISALC    ', 'GIGCchem',
                          'WetLossLS_ITCN     ', 'GIGCchem',
                          'WetLossLS_ITHN     ', 'GIGCchem',
                          'WetLossLS_LIMO     ', 'GIGCchem',
                          'WetLossLS_LVOC     ', 'GIGCchem',
                          'WetLossLS_LVOCOA   ', 'GIGCchem',
                          'WetLossLS_MACR1OOH ', 'GIGCchem',
                          'WetLossLS_MAP      ', 'GIGCchem',
                          'WetLossLS_MCRDH    ', 'GIGCchem',
                          'WetLossLS_MCRENOL  ', 'GIGCchem',
                          'WetLossLS_MCRHNB   ', 'GIGCchem',
                          'WetLossLS_MCRHN    ', 'GIGCchem',
                          'WetLossLS_MCRHP    ', 'GIGCchem',
                          'WetLossLS_MEK      ', 'GIGCchem',
                          'WetLossLS_MGLY     ', 'GIGCchem',
                          'WetLossLS_MOH      ', 'GIGCchem',
                          'WetLossLS_MONITA   ', 'GIGCchem',
                          'WetLossLS_MONITS   ', 'GIGCchem',
                          'WetLossLS_MONITU   ', 'GIGCchem',
                          'WetLossLS_MPAN     ', 'GIGCchem',
                          'WetLossLS_MP       ', 'GIGCchem',
                          'WetLossLS_MPN      ', 'GIGCchem',
                          'WetLossLS_MSA      ', 'GIGCchem',
                          'WetLossLS_MTPA     ', 'GIGCchem',
                          'WetLossLS_MTPO     ', 'GIGCchem',
                          'WetLossLS_MVKDH    ', 'GIGCchem',
                          'WetLossLS_MVKHCB   ', 'GIGCchem',
                          'WetLossLS_MVKHC    ', 'GIGCchem',
                          'WetLossLS_MVKHP    ', 'GIGCchem',
                          'WetLossLS_MVK      ', 'GIGCchem',
                          'WetLossLS_MVKN     ', 'GIGCchem',
                          'WetLossLS_MVKPC    ', 'GIGCchem',
                          'WetLossLS_NH3      ', 'GIGCchem',
                          'WetLossLS_NH4      ', 'GIGCchem',
                          'WetLossLS_NIT      ', 'GIGCchem',
                          'WetLossLS_NITs     ', 'GIGCchem',
                          'WetLossLS_OCPI     ', 'GIGCchem',
                          'WetLossLS_OCPO     ', 'GIGCchem',
                          'WetLossLS_PAN      ', 'GIGCchem',
                          'WetLossLS_pFe      ', 'GIGCchem',
                          'WetLossLS_PP       ', 'GIGCchem',
                          'WetLossLS_PPN      ', 'GIGCchem',
                          'WetLossLS_PROPNN   ', 'GIGCchem',
                          'WetLossLS_PRPE     ', 'GIGCchem',
                          'WetLossLS_PRPN     ', 'GIGCchem',
                          'WetLossLS_PYAC     ', 'GIGCchem',
                          'WetLossLS_R4N2     ', 'GIGCchem',
                          'WetLossLS_R4P      ', 'GIGCchem',
                          'WetLossLS_RA3P     ', 'GIGCchem',
                          'WetLossLS_RB3P     ', 'GIGCchem',
                          'WetLossLS_RIPA     ', 'GIGCchem',
                          'WetLossLS_RIPB     ', 'GIGCchem',
                          'WetLossLS_RIPC     ', 'GIGCchem',
                          'WetLossLS_RIPD     ', 'GIGCchem',
                          'WetLossLS_RP       ', 'GIGCchem',
                          'WetLossLS_SALA     ', 'GIGCchem',
                          'WetLossLS_SALAAL   ', 'GIGCchem',
                          'WetLossLS_SALACL   ', 'GIGCchem',
                          'WetLossLS_SALC     ', 'GIGCchem',
                          'WetLossLS_SALCAL   ', 'GIGCchem',
                          'WetLossLS_SALCCL   ', 'GIGCchem',
                          'WetLossLS_SO2      ', 'GIGCchem',
                          'WetLossLS_SO4      ', 'GIGCchem',
                          'WetLossLS_SO4s     ', 'GIGCchem',
                          'WetLossLS_SOAGX    ', 'GIGCchem',
                          'WetLossLS_SOAIE    ', 'GIGCchem',
                          'WetLossLS_SOAS     ', 'GIGCchem',
                          'WetLossLS_TSOA0    ', 'GIGCchem',
                          'WetLossLS_TSOA1    ', 'GIGCchem',
                          'WetLossLS_TSOA2    ', 'GIGCchem',
                          'WetLossLS_TSOA3    ', 'GIGCchem',
                          'WetLossLS_TSOG0    ', 'GIGCchem',
                          'WetLossLS_TSOG1    ', 'GIGCchem',
                          'WetLossLS_TSOG2    ', 'GIGCchem',
                          'WetLossLS_TSOG3    ', 'GIGCchem',
::