EXPID:  OutputDir/GCHP
EXPDSC: GEOS-Chem_devel
CoresPerNode: 6
VERSION: 1

#==============================================================================
# Define output grids different from the native cubed sphere in this section.
# Each diagnostics collection will be output on the native resolution cubed
# sphere grid unless a different grid is configured. A few examples are
# provided below.
#
# To use a grid for a specific collection, include the 'grid_label' field
# in the collection definition. For example,
#
#   SpeciesConc.grid_label:   REGIONAL1x1
#
# If you are outputting on a lat/lon grid, be sure to specify conservative
# regridding. Otherwise regridding will be bi-linear.
#
#   SpeciesConc.conservative: 1
#
#==============================================================================
GRID_LABELS: PE24x144-CF
             PC360x181-DC
             REGIONAL1x1
    ::

    # Example of cubed-sphere grid at c24 resolution
    PE24x144-CF.GRID_TYPE: Cubed-Sphere
    PE24x144-CF.IM_WORLD: 24
    PE24x144-CF.JM_WORLD: 144
    PE24x144-CF.LM: 72

    # Example of lat-lon global grid at 1x1 resolution
    PC360x181-DC.GRID_TYPE: LatLon
    PC360x181-DC.IM_WORLD: 360
    PC360x181-DC.JM_WORLD: 181
    PC360x181-DC.POLE: PC
    PC360x181-DC.DATELINE: DC
    PC360x181-DC.LM: 72

    # Example of lat-lon regional grid at 1x1 resolution
    REGIONAL1x1.GRID_TYPE: LatLon
    REGIONAL1x1.IM_WORLD: 80
    REGIONAL1x1.JM_WORLD: 40
    REGIONAL1x1.POLE: XY
    REGIONAL1x1.DATELINE: XY
    REGIONAL1x1.LON_RANGE:   0 80
    REGIONAL1x1.LAT_RANGE: -30 10
    REGIONAL1x1.LM: 72

#==============================================================================
# %%%%% COLLECTION NAME DECLARATIONS %%%%%
#
# To enable a collection, remove the "#" character in front of its name. The
# Restart collection should always be turned on.
#
# NOTE: These are the "default" collections for GEOS-Chem, but you can create
# your own customized diagnostic collections as well.
#==============================================================================
COLLECTIONS: #'AerosolMass',
             #'Aerosols',
             #'Budget',
             #'CloudConvFlux',
             #'ConcAboveSfc',
             #'ConcAfterChem',
             #'DryDep',
             'Emissions',
             #'JValues',
	     #'Metrics',
             #'KppDiags',
             #'LevelEdgeDiags',
             #'ProdLoss',
             #'RRTMG',
             'SpeciesConc',
             #'StateChm',
             'StateMet_avg',
             'StateMet_inst',
             #'WetLossConv',
             #'WetLossLS',
::
#==============================================================================
# Define collections
# The rest of this file consists of collection definitions.
# Above collections whose declarations are commented out will be ignored.
# You can skip individual diagnostics by commenting them out.
#
# WARNING: Frequency, duration, and mode will be over-written with
# settings in runConfig.sh. Edit those settings there. Add collections
# as needed to that file as needed or edit in place new collections here.
#
# NOTES:
#    (1) See the GRID_LABELS sections above for details about output grids
#    (2) To output a reduced set of levels, use the levels keyword, e.g.:
#           SpeciesConc.levels: 1 2 3
#
#==============================================================================
# Emissions (see HEMCO_Diagn.rc for additional config settings)
  Emissions.template:     '%y4%m2%d2_%h2%n2z.nc4',
  Emissions.format:       'CFIO',
  Emissions.frequency:    010000
  Emissions.duration:     010000
  Emissions.mode:         'time-averaged'
  Emissions.fields:       'EmisACET_Total       ', 'GCHPchem',
                          'EmisACET_Anthro      ', 'GCHPchem',
                          'EmisACET_BioBurn     ', 'GCHPchem',
                          'EmisACET_Biogenic    ', 'GCHPchem',
                          'EmisACET_Ocean       ', 'GCHPchem',
                          'EmisALD2_Total       ', 'GCHPchem',
                          'EmisALD2_Anthro      ', 'GCHPchem',
                          'EmisALD2_BioBurn     ', 'GCHPchem',
                          'EmisALD2_Biogenic    ', 'GCHPchem',
                          'EmisALD2_Ocean       ', 'GCHPchem',
                          'EmisALD2_PlantDecay  ', 'GCHPchem',
                          'EmisALD2_Ship        ', 'GCHPchem',
                          'EmisALK4_Total       ', 'GCHPchem',
                          'EmisALK4_Aircraft    ', 'GCHPchem',
                          'EmisALK4_Anthro      ', 'GCHPchem',
                          'EmisALK4_BioBurn     ', 'GCHPchem',
                          'EmisALK4_Ship        ', 'GCHPchem',
                          'EmisBCPI_Total       ', 'GCHPchem',
                          'EmisBCPI_Aircraft    ', 'GCHPchem',
                          'EmisBCPI_Anthro      ', 'GCHPchem',
                          'EmisBCPI_BioBurn     ', 'GCHPchem',
                          'EmisBCPI_Ship        ', 'GCHPchem',
                          'EmisBCPO_Total       ', 'GCHPchem',
                          'EmisBCPO_Anthro      ', 'GCHPchem',
                          'EmisBCPO_BioBurn     ', 'GCHPchem',
                          'EmisBCPO_Ship        ', 'GCHPchem',
                          'EmisBENZ_Total       ', 'GCHPchem',
                          'EmisBENZ_Anthro      ', 'GCHPchem',
                          'EmisBENZ_BioBurn     ', 'GCHPchem',
                          'EmisBENZ_Ship        ', 'GCHPchem',
                          #'EmisC2H2_Total       ', 'GCHPchem',
                          #'EmisC2H2_Anthro      ', 'GCHPchem',
                          #'EmisC2H2_Ship        ', 'GCHPchem',
                          #'EmisC2H4_Total       ', 'GCHPchem',
                          #'EmisC2H4_Anthro      ', 'GCHPchem',
                          #'EmisC2H4_Biogenic    ', 'GCHPchem',
                          #'EmisC2H4_Ship        ', 'GCHPchem',
                          'EmisC2H6_Total       ', 'GCHPchem',
                          'EmisC2H6_Aircraft    ', 'GCHPchem',
                          'EmisC2H6_Anthro      ', 'GCHPchem',
                          'EmisC2H6_BioBurn     ', 'GCHPchem',
                          'EmisC2H6_Ship        ', 'GCHPchem',
                          'EmisC3H8_Total       ', 'GCHPchem',
                          'EmisC3H8_Aircraft    ', 'GCHPchem',
                          'EmisC3H8_Anthro      ', 'GCHPchem',
                          'EmisC3H8_BioBurn     ', 'GCHPchem',
                          'EmisC3H8_Ship        ', 'GCHPchem',
                          'EmisCH2Br2_Ocean     ', 'GCHPchem',
                          'EmisCH2I2_Ocean      ', 'GCHPchem',
                          'EmisCH2ICl_Ocean     ', 'GCHPchem',
                          'EmisCH2IBr_Ocean     ', 'GCHPchem',
                          'EmisCH2O_Total       ', 'GCHPchem',
                          'EmisCH2O_Aircraft    ', 'GCHPchem',
                          'EmisCH2O_Anthro      ', 'GCHPchem',
                          'EmisCH2O_BioBurn     ', 'GCHPchem',
                          'EmisCH2O_Ship        ', 'GCHPchem',
                          'EmisCH3I_Ocean       ', 'GCHPchem',
                          'EmisCH4_Total        ', 'GCHPchem',
                          'EmisCH4_Anthro       ', 'GCHPchem',
                          'EmisCH4_BioBurn      ', 'GCHPchem',
                          'EmisCH4_Ship         ', 'GCHPchem',
                          'EmisCHBr3_Ocean      ', 'GCHPchem',
                          'EmisCO_Total         ', 'GCHPchem',
                          'EmisCO_Aircraft      ', 'GCHPchem',
                          'EmisCO_Anthro        ', 'GCHPchem',
                          'EmisCO_BioBurn       ', 'GCHPchem',
                          'EmisCO_Ship          ', 'GCHPchem',
                          'EmisCO2_Total        ', 'GCHPchem',
                          'EmisCO2_Anthro       ', 'GCHPchem',
                          'EmisCO2_BioBurn      ', 'GCHPchem',
                          'EmisCO2_Ship         ', 'GCHPchem',
                          'EmisDMS_Ocean        ', 'GCHPchem',
                          'EmisDST1_Total       ', 'GCHPchem',
                          'EmisDST1_Anthro      ', 'GCHPchem',
                          'EmisDST1_Natural     ', 'GCHPchem',
                          'EmisDST2_Natural     ', 'GCHPchem',
                          'EmisDST3_Natural     ', 'GCHPchem',
                          'EmisDST4_Natural     ', 'GCHPchem',
                          'EmisEOH_Total        ', 'GCHPchem',
                          'EmisEOH_Anthro       ', 'GCHPchem',
                          'EmisEOH_BioBurn      ', 'GCHPchem',
                          'EmisEOH_Biogenic     ', 'GCHPchem',
                          'EmisEOH_PlantDecay   ', 'GCHPchem',
                          'EmisEOH_Ship         ', 'GCHPchem',
                          'EmisETNO3_Ocean      ', 'GCHPchem',
                          'EmisHAC_Total        ', 'GCHPchem',
                          'EmisHAC_Anthro       ', 'GCHPchem',
                          'EmisGLYC_Total       ', 'GCHPchem',
                          'EmisGLYC_Anthro      ', 'GCHPchem',
                          'EmisGLYX_Total       ', 'GCHPchem',
                          'EmisGLYX_Anthro      ', 'GCHPchem',
                          'EmisHCOOH_Total      ', 'GCHPchem',
                          'EmisHCOOH_Anthro     ', 'GCHPchem',
                          'EmisHCOOH_Ship       ', 'GCHPchem',
                          'EmisHNO2_Anthro      ', 'GCHPchem',
                          'EmisHNO3_Ship        ', 'GCHPchem',
                          'EmisISOP_Total       ', 'GCHPchem',
                          'EmisISOP_Anthro      ', 'GCHPchem',
                          'EmisISOP_Biogenic    ', 'GCHPchem',
                          'EmisLIMO_Biogenic    ', 'GCHPchem',
                          'EmisMACR_Total       ', 'GCHPchem',
                          'EmisMACR_Aircraft    ', 'GCHPchem',
                          'EmisMACR_Anthro      ', 'GCHPchem',
                          'EmisMEK_Total        ', 'GCHPchem',
                          'EmisMEK_Anthro       ', 'GCHPchem',
                          'EmisMEK_BioBurn      ', 'GCHPchem',
                          'EmisMEK_Ship         ', 'GCHPchem',
                          'EmisMENO3_Ocean      ', 'GCHPchem',
                          'EmisMGLY_Total       ', 'GCHPchem',
                          'EmisMGLY_Anthro      ', 'GCHPchem',
                          'EmisMOH_Total        ', 'GCHPchem',
                          'EmisMOH_Anthro       ', 'GCHPchem',
                          'EmisMOH_BioBurn      ', 'GCHPchem',
                          'EmisMOH_Biogenic     ', 'GCHPchem',
                          'EmisMOH_Ocean        ', 'GCHPchem',
                          'EmisMOH_Ship         ', 'GCHPchem',
                          'EmisMTPA_Total       ', 'GCHPchem',
                          'EmisMTPA_BioBurn     ', 'GCHPchem',
                          'EmisMTPA_Biogenic    ', 'GCHPchem',
                          'EmisMTPO_Biogenic    ', 'GCHPchem',
                          'EmisMVK_Anthro       ', 'GCHPchem',
                          'EmisNAP_Total        ', 'GCHPchem',
                          'EmisNAP_Anthro       ', 'GCHPchem',
                          'EmisNAP_BioBurn      ', 'GCHPchem',
                          'EmisNH3_Total        ', 'GCHPchem',
                          'EmisNH3_Anthro       ', 'GCHPchem',
                          'EmisNH3_BioBurn      ', 'GCHPchem',
                          'EmisNH3_Natural      ', 'GCHPchem',
                          'EmisNH3_Seabirds     ', 'GCHPchem',
                          'EmisNH3_Ship         ', 'GCHPchem',
                          'EmisNO_Total         ', 'GCHPchem',
                          'EmisNO_Aircraft      ', 'GCHPchem',
                          'EmisNO_Anthro        ', 'GCHPchem',
                          'EmisNO_BioBurn       ', 'GCHPchem',
                          'EmisNO_Lightning     ', 'GCHPchem',
                          'EmisNO_Ship          ', 'GCHPchem',
                          'EmisNO_Soil          ', 'GCHPchem',
                          'EmisNO2_Anthro       ', 'GCHPchem',
                          'EmisNO2_Ship         ', 'GCHPchem',
                          'EmisO3_Ship          ', 'GCHPchem',
                          'EmisOCPI_Total       ', 'GCHPchem',
                          'EmisOCPI_Aircraft    ', 'GCHPchem',
                          'EmisOCPI_Anthro      ', 'GCHPchem',
                          'EmisOCPI_BioBurn     ', 'GCHPchem',
                          'EmisOCPI_Ship        ', 'GCHPchem',
                          'EmisOCPO_Total       ', 'GCHPchem',
                          'EmisOCPO_Anthro      ', 'GCHPchem',
                          'EmisOCPO_BioBurn     ', 'GCHPchem',
                          'EmisOCPO_Ship        ', 'GCHPchem',
                          'EmispFe_Total        ', 'GCHPchem',
                          'EmispFe_Anthro       ', 'GCHPchem',
                          'EmispFe_Ship         ', 'GCHPchem',
                          'EmisPOG1_Total       ', 'GCHPchem',
                          'EmisPOG1_Anthro      ', 'GCHPchem',
                          'EmisPOG1_BioBurn     ', 'GCHPchem',
                          'EmisPOG2_Total       ', 'GCHPchem',
                          'EmisPOG2_Anthro      ', 'GCHPchem',
                          'EmisPOG2_BioBurn     ', 'GCHPchem',
                          'EmisPRPE_Total       ', 'GCHPchem',
                          'EmisPRPE_Aircraft    ', 'GCHPchem',
                          'EmisPRPE_Anthro      ', 'GCHPchem',
                          'EmisPRPE_BioBurn     ', 'GCHPchem',
                          'EmisPRPE_Biogenic    ', 'GCHPchem',
                          'EmisPRPE_Ship        ', 'GCHPchem',
                          'EmisRCHO_Total       ', 'GCHPchem',
                          'EmisRCHO_Aircraft    ', 'GCHPchem',
                          'EmisRCHO_Anthro      ', 'GCHPchem',
                          #'EmisSESQ_Biogenic    ', 'GCHPchem',
                          'EmisBr2_Natural      ', 'GCHPchem',
                          'EmisBrSALA_Natural   ', 'GCHPchem',
                          'EmisBrSALC_Natural   ', 'GCHPchem',
                          'EmisSALA_Natural     ', 'GCHPchem',
                          'EmisSALAAL_Natural   ', 'GCHPchem',
                          'EmisSALACL_Natural   ', 'GCHPchem',
                          'EmisSALC_Natural     ', 'GCHPchem',
                          'EmisSALCAL_Natural   ', 'GCHPchem',
                          'EmisSALCCL_Natural   ', 'GCHPchem',
                          'EmisSO2_Total        ', 'GCHPchem',
                          'EmisSO2_Aircraft     ', 'GCHPchem',
                          'EmisSO2_Anthro       ', 'GCHPchem',
                          'EmisSO2_BioBurn      ', 'GCHPchem',
                          'EmisSO2_VolcErupt    ', 'GCHPchem',
                          'EmisSO2_VolcDegas    ', 'GCHPchem',
                          'EmisSO2_Ship         ', 'GCHPchem',
                          'EmisSO4_Total        ', 'GCHPchem',
                          'EmisSO4_Aircraft     ', 'GCHPchem',
                          'EmisSO4_Anthro       ', 'GCHPchem',
                          'EmisSO4_Ship         ', 'GCHPchem',
                          'EmisSOAP_Total       ', 'GCHPchem',
                          'EmisSOAP_Aircraft    ', 'GCHPchem',
                          'EmisSOAP_Anthro      ', 'GCHPchem',
                          'EmisSOAP_Biogenic    ', 'GCHPchem',
                          'EmisSOAP_BioBurn     ', 'GCHPchem',
                          'EmisSOAP_Ship        ', 'GCHPchem',
                          'EmisSOAS_Biogenic    ', 'GCHPchem',
                          'EmisTOLU_Total       ', 'GCHPchem',
                          'EmisTOLU_Anthro      ', 'GCHPchem',
                          'EmisTOLU_BioBurn     ', 'GCHPchem',
                          'EmisTOLU_Ship        ', 'GCHPchem',
                          'EmisXYLE_Total       ', 'GCHPchem',
                          'EmisXYLE_Anthro      ', 'GCHPchem',
                          'EmisXYLE_BioBurn     ', 'GCHPchem',
                          'EmisXYLE_Ship        ', 'GCHPchem',
::
#==============================================================================
# %%%%% THE AerosolMass COLLECTION %%%%%
#
# Aerosol and PM2.5 mass
#
# Available for full-chemistry and aerosol-only simulations
#==============================================================================
  AerosolMass.template:   '%y4%m2%d2_%h2%n2z.nc4',
  AerosolMass.format:     'CFIO',
  AerosolMass.frequency:  010000
  AerosolMass.duration:   010000
  AerosolMass.mode:       'time-averaged'
  AerosolMass.fields:     'AerMassBC          ', 'GCHPchem',
                          'AerMassINDIOL      ', 'GCHPchem',
                          'AerMassLVOCOA      ', 'GCHPchem',
                          'AerMassNH4         ', 'GCHPchem',
                          'AerMassNIT         ', 'GCHPchem',
                          'AerMassPOA         ', 'GCHPchem',
                          'AerMassSAL         ', 'GCHPchem',
                          'AerMassSO4         ', 'GCHPchem',
                          'AerMassSOAGX       ', 'GCHPchem',
                          'AerMassSOAIE       ', 'GCHPchem',
                          'PM25               ', 'GCHPchem',
                          'TotalOA            ', 'GCHPchem',
                          'TotalOC            ', 'GCHPchem',
::
#==============================================================================
# %%%%% The Aerosols COLLECTION %%%%%
#
# Aerosol optical depth, surface area, number density, and hygroscopic growth
#
# Available for full-chemistry or aerosol-only simulations
#==============================================================================
  Aerosols.template:      '%y4%m2%d2_%h2%n2z.nc4',
  Aerosols.format:        'CFIO',
  Aerosols.frequency:     010000
  Aerosols.duration:      010000
  Aerosols.mode:          'time-averaged'
  Aerosols.fields:        'AODHygWL1_SO4                 ', 'GCHPchem',
                          'AODHygWL1_BCPI                ', 'GCHPchem',
                          'AODHygWL1_OCPI                ', 'GCHPchem',
                          'AODHygWL1_SALA                ', 'GCHPchem',
                          'AODHygWL1_SALC                ', 'GCHPchem',
                          'AODDust                       ', 'GCHPchem',
                          'AODDustWL1_bin1               ', 'GCHPchem',
                          'AODDustWL1_bin2               ', 'GCHPchem',
                          'AODDustWL1_bin3               ', 'GCHPchem',
                          'AODDustWL1_bin4               ', 'GCHPchem',
                          'AODDustWL1_bin5               ', 'GCHPchem',
                          'AODDustWL1_bin6               ', 'GCHPchem',
                          'AODDustWL1_bin7               ', 'GCHPchem',
                          'AODSOAfromAqIsopreneWL1       ', 'GCHPchem',
                          'AODStratLiquidAerWL1          ', 'GCHPchem',
                          'AODPolarStratCloudWL1         ', 'GCHPchem',
                          'AerHygroscopicGrowth_SO4      ', 'GCHPchem',
                          'AerHygroscopicGrowth_BCPI     ', 'GCHPchem',
                          'AerHygroscopicGrowth_OCPI     ', 'GCHPchem',
                          'AerHygroscopicGrowth_SALA     ', 'GCHPchem',
                          'AerHygroscopicGrowth_SALC     ', 'GCHPchem',
                          'AerNumDensityStratLiquid      ', 'GCHPchem',
                          'AerNumDensityStratParticulate ', 'GCHPchem',
                          'AerAqueousVolume              ', 'GCHPchem',
                          'AerSurfAreaDust               ', 'GCHPchem',
                          'AerSurfAreaHyg_SO4            ', 'GCHPchem',
                          'AerSurfAreaHyg_BCPI           ', 'GCHPchem',
                          'AerSurfAreaHyg_OCPI           ', 'GCHPchem',
                          'AerSurfAreaHyg_SALA           ', 'GCHPchem',
                          'AerSurfAreaHyg_SALC           ', 'GCHPchem',
                          'AerSurfAreaStratLiquid        ', 'GCHPchem',
                          'AerSurfAreaPolarStratCloud    ', 'GCHPchem',
                          'Chem_AeroAreaMDUST1           ', 'GCHPchem',
                          'Chem_AeroAreaMDUST2           ', 'GCHPchem',
                          'Chem_AeroAreaMDUST3           ', 'GCHPchem',
                          'Chem_AeroAreaMDUST4           ', 'GCHPchem',
                          'Chem_AeroAreaMDUST5           ', 'GCHPchem',
                          'Chem_AeroAreaMDUST6           ', 'GCHPchem',
                          'Chem_AeroAreaMDUST7           ', 'GCHPchem',
                          'Chem_AeroAreaSULF             ', 'GCHPchem',
                          'Chem_AeroAreaBC               ', 'GCHPchem',
                          'Chem_AeroAreaOC               ', 'GCHPchem',
                          'Chem_AeroAreaSSA              ', 'GCHPchem',
                          'Chem_AeroAreaSSC              ', 'GCHPchem',
                          'Chem_AeroAreaBGSULF           ', 'GCHPchem',
                          'Chem_AeroAreaICEI             ', 'GCHPchem',
                          'Chem_AeroRadiMDUST1           ', 'GCHPchem',
                          'Chem_AeroRadiMDUST2           ', 'GCHPchem',
                          'Chem_AeroRadiMDUST3           ', 'GCHPchem',
                          'Chem_AeroRadiMDUST4           ', 'GCHPchem',
                          'Chem_AeroRadiMDUST5           ', 'GCHPchem',
                          'Chem_AeroRadiMDUST6           ', 'GCHPchem',
                          'Chem_AeroRadiMDUST7           ', 'GCHPchem',
                          'Chem_AeroRadiSULF             ', 'GCHPchem',
                          'Chem_AeroRadiBC               ', 'GCHPchem',
                          'Chem_AeroRadiOC               ', 'GCHPchem',
                          'Chem_AeroRadiSSA              ', 'GCHPchem',
                          'Chem_AeroRadiSSC              ', 'GCHPchem',
                          'Chem_AeroRadiBGSULF           ', 'GCHPchem',
                          'Chem_AeroRadiICEI             ', 'GCHPchem',
                          'Chem_WetAeroAreaMDUST1        ', 'GCHPchem',
                          'Chem_WetAeroAreaMDUST2        ', 'GCHPchem',
                          'Chem_WetAeroAreaMDUST3        ', 'GCHPchem',
                          'Chem_WetAeroAreaMDUST4        ', 'GCHPchem',
                          'Chem_WetAeroAreaMDUST5        ', 'GCHPchem',
                          'Chem_WetAeroAreaMDUST6        ', 'GCHPchem',
                          'Chem_WetAeroAreaMDUST7        ', 'GCHPchem',
                          'Chem_WetAeroAreaSULF          ', 'GCHPchem',
                          'Chem_WetAeroAreaBC            ', 'GCHPchem',
                          'Chem_WetAeroAreaOC            ', 'GCHPchem',
                          'Chem_WetAeroAreaSSA           ', 'GCHPchem',
                          'Chem_WetAeroAreaSSC           ', 'GCHPchem',
                          'Chem_WetAeroAreaBGSULF        ', 'GCHPchem',
                          'Chem_WetAeroAreaICEI          ', 'GCHPchem',
                          'Chem_WetAeroRadiMDUST1        ', 'GCHPchem',
                          'Chem_WetAeroRadiMDUST2        ', 'GCHPchem',
                          'Chem_WetAeroRadiMDUST3        ', 'GCHPchem',
                          'Chem_WetAeroRadiMDUST4        ', 'GCHPchem',
                          'Chem_WetAeroRadiMDUST5        ', 'GCHPchem',
                          'Chem_WetAeroRadiMDUST6        ', 'GCHPchem',
                          'Chem_WetAeroRadiMDUST7        ', 'GCHPchem',
                          'Chem_WetAeroRadiSULF          ', 'GCHPchem',
                          'Chem_WetAeroRadiBC            ', 'GCHPchem',
                          'Chem_WetAeroRadiOC            ', 'GCHPchem',
                          'Chem_WetAeroRadiSSA           ', 'GCHPchem',
                          'Chem_WetAeroRadiSSC           ', 'GCHPchem',
                          'Chem_WetAeroRadiBGSULF        ', 'GCHPchem',
                          'Chem_WetAeroRadiICEI          ', 'GCHPchem',
                          'Chem_StatePSC                 ', 'GCHPchem',
                          'Chem_KhetiSLAN2O5H2O          ', 'GCHPchem',
                          'Chem_KhetiSLAN2O5HCl          ', 'GCHPchem',
                          'Chem_KhetiSLAClNO3H2O         ', 'GCHPchem',
                          'Chem_KhetiSLAClNO3HCl         ', 'GCHPchem',
                          'Chem_KhetiSLAClNO3HBr         ', 'GCHPchem',
                          'Chem_KhetiSLABrNO3H2O         ', 'GCHPchem',
                          'Chem_KhetiSLABrNO3HCl         ', 'GCHPchem',
                          'Chem_KhetiSLAHOClHCl          ', 'GCHPchem',
                          'Chem_KhetiSLAHOClHBr          ', 'GCHPchem',
                          'Chem_KhetiSLAHOBrHCl          ', 'GCHPchem',
                          'Chem_KhetiSLAHOBrHBr          ', 'GCHPchem',
::
#==============================================================================
# Budget defined as species kg/s in the column (full, troposphere, or PBL)
# due to a single component (e.g. chemistry); default = ozone only; add more
# species as needed (advected only)
  Budget.template:        '%y4%m2%d2_%h2%n2z.nc4',
  Budget.format:          'CFIO',
  Budget.frequency:       010000
  Budget.duration:        010000
  Budget.mode:            'time-averaged'
  Budget.fields:          'BudgetEmisDryDepFull_O3  ', 'GCHPchem',
                          'BudgetEmisDryDepTrop_O3  ', 'GCHPchem',
                          'BudgetEmisDryDepPBL_O3   ', 'GCHPchem',
                          'BudgetChemistryFull_O3   ', 'GCHPchem',
                          'BudgetChemistryTrop_O3   ', 'GCHPchem',
                          'BudgetChemistryPBL_O3    ', 'GCHPchem',
                          'BudgetMixingFull_O3      ', 'GCHPchem',
                          'BudgetMixingTrop_O3      ', 'GCHPchem',
                          'BudgetMixingPBL_O3       ', 'GCHPchem',
                          'BudgetConvectionFull_O3  ', 'GCHPchem',
                          'BudgetConvectionTrop_O3  ', 'GCHPchem',
                          'BudgetConvectionPBL_O3   ', 'GCHPchem',
                          'BudgetWetDepFull_SO4     ', 'GCHPchem',
                          'BudgetWetDepTrop_SO4     ', 'GCHPchem',
                          'BudgetWetDepPBL_SO4      ', 'GCHPchem',
::
#==============================================================================
# %%%%% THE CloudConvFlux COLLECTION %%%%%
#
# Cloud convective flux (default = advected species)
#
# Available for all simulations
#==============================================================================
  CloudConvFlux.template:  '%y4%m2%d2_%h2%n2z.nc4',
  CloudConvFlux.format:    'CFIO',
  CloudConvFlux.frequency: 010000
  CloudConvFlux.duration:  010000
  CloudConvFlux.mode:      'time-averaged'
  CloudConvFlux.fields:    'CloudConvFlux_ACET     ', 'GCHPchem',
                           'CloudConvFlux_ACTA     ', 'GCHPchem',
                           'CloudConvFlux_AERI     ', 'GCHPchem',
                           'CloudConvFlux_ALD2     ', 'GCHPchem',
                           'CloudConvFlux_ALK4     ', 'GCHPchem',
                           'CloudConvFlux_ATOOH    ', 'GCHPchem',
                           'CloudConvFlux_BCPI     ', 'GCHPchem',
                           'CloudConvFlux_BCPO     ', 'GCHPchem',
                           'CloudConvFlux_BENZ     ', 'GCHPchem',
                           'CloudConvFlux_Br2      ', 'GCHPchem',
                           'CloudConvFlux_BrCl     ', 'GCHPchem',
                           'CloudConvFlux_Br       ', 'GCHPchem',
                           'CloudConvFlux_BrNO2    ', 'GCHPchem',
                           'CloudConvFlux_BrNO3    ', 'GCHPchem',
                           'CloudConvFlux_BrO      ', 'GCHPchem',
                           'CloudConvFlux_BrSALA   ', 'GCHPchem',
                           'CloudConvFlux_BrSALC   ', 'GCHPchem',
                           'CloudConvFlux_C2H6     ', 'GCHPchem',
                           'CloudConvFlux_C3H8     ', 'GCHPchem',
                           'CloudConvFlux_CCl4     ', 'GCHPchem',
                           'CloudConvFlux_CFC113   ', 'GCHPchem',
                           'CloudConvFlux_CFC114   ', 'GCHPchem',
                           'CloudConvFlux_CFC115   ', 'GCHPchem',
                           'CloudConvFlux_CFC11    ', 'GCHPchem',
                           'CloudConvFlux_CFC12    ', 'GCHPchem',
                           'CloudConvFlux_CH2Br2   ', 'GCHPchem',
                           'CloudConvFlux_CH2Cl2   ', 'GCHPchem',
                           'CloudConvFlux_CH2I2    ', 'GCHPchem',
                           'CloudConvFlux_CH2IBr   ', 'GCHPchem',
                           'CloudConvFlux_CH2ICl   ', 'GCHPchem',
                           'CloudConvFlux_CH2O     ', 'GCHPchem',
                           'CloudConvFlux_CH3Br    ', 'GCHPchem',
                           'CloudConvFlux_CH3CCl3  ', 'GCHPchem',
                           'CloudConvFlux_CH3Cl    ', 'GCHPchem',
                           'CloudConvFlux_CH3I     ', 'GCHPchem',
                           'CloudConvFlux_CH4      ', 'GCHPchem',
                           'CloudConvFlux_CHBr3    ', 'GCHPchem',
                           'CloudConvFlux_CHCl3    ', 'GCHPchem',
                           'CloudConvFlux_Cl2      ', 'GCHPchem',
                           'CloudConvFlux_Cl2O2    ', 'GCHPchem',
                           'CloudConvFlux_Cl       ', 'GCHPchem',
                           'CloudConvFlux_ClNO2    ', 'GCHPchem',
                           'CloudConvFlux_ClNO3    ', 'GCHPchem',
                           'CloudConvFlux_ClO      ', 'GCHPchem',
                           'CloudConvFlux_ClOO     ', 'GCHPchem',
                           'CloudConvFlux_CO       ', 'GCHPchem',
                           'CloudConvFlux_DMS      ', 'GCHPchem',
                           'CloudConvFlux_DST1     ', 'GCHPchem',
                           'CloudConvFlux_DST2     ', 'GCHPchem',
                           'CloudConvFlux_DST3     ', 'GCHPchem',
                           'CloudConvFlux_DST4     ', 'GCHPchem',
                           'CloudConvFlux_EOH      ', 'GCHPchem',
                           'CloudConvFlux_ETHLN    ', 'GCHPchem',
                           'CloudConvFlux_ETNO3    ', 'GCHPchem',
                           'CloudConvFlux_ETP      ', 'GCHPchem',
                           'CloudConvFlux_GLYC     ', 'GCHPchem',
                           'CloudConvFlux_GLYX     ', 'GCHPchem',
                           'CloudConvFlux_H1211    ', 'GCHPchem',
                           'CloudConvFlux_H1301    ', 'GCHPchem',
                           'CloudConvFlux_H2402    ', 'GCHPchem',
                           'CloudConvFlux_H2O2     ', 'GCHPchem',
                           'CloudConvFlux_H2O      ', 'GCHPchem',
                           'CloudConvFlux_HAC      ', 'GCHPchem',
                           'CloudConvFlux_HBr      ', 'GCHPchem',
                           'CloudConvFlux_HC5A     ', 'GCHPchem',
                           'CloudConvFlux_HCFC123  ', 'GCHPchem',
                           'CloudConvFlux_HCFC141B ', 'GCHPchem',
                           'CloudConvFlux_HCFC142B ', 'GCHPchem',
                           'CloudConvFlux_HCFC22   ', 'GCHPchem',
                           'CloudConvFlux_HCl      ', 'GCHPchem',
                           'CloudConvFlux_HCOOH    ', 'GCHPchem',
                           'CloudConvFlux_HI       ', 'GCHPchem',
                           'CloudConvFlux_HMHP     ', 'GCHPchem',
                           'CloudConvFlux_HMML     ', 'GCHPchem',
                           'CloudConvFlux_HNO2     ', 'GCHPchem',
                           'CloudConvFlux_HNO3     ', 'GCHPchem',
                           'CloudConvFlux_HNO4     ', 'GCHPchem',
                           'CloudConvFlux_HOBr     ', 'GCHPchem',
                           'CloudConvFlux_HOCl     ', 'GCHPchem',
                           'CloudConvFlux_HOI      ', 'GCHPchem',
                           'CloudConvFlux_HONIT    ', 'GCHPchem',
                           'CloudConvFlux_HPALD1   ', 'GCHPchem',
                           'CloudConvFlux_HPALD2   ', 'GCHPchem',
                           'CloudConvFlux_HPALD3   ', 'GCHPchem',
                           'CloudConvFlux_HPALD4   ', 'GCHPchem',
                           'CloudConvFlux_HPETHNL  ', 'GCHPchem',
                           'CloudConvFlux_I2       ', 'GCHPchem',
                           'CloudConvFlux_I2O2     ', 'GCHPchem',
                           'CloudConvFlux_I2O3     ', 'GCHPchem',
                           'CloudConvFlux_I2O4     ', 'GCHPchem',
                           'CloudConvFlux_IBr      ', 'GCHPchem',
                           'CloudConvFlux_ICHE     ', 'GCHPchem',
                           'CloudConvFlux_ICl      ', 'GCHPchem',
                           'CloudConvFlux_ICN      ', 'GCHPchem',
                           'CloudConvFlux_ICPDH    ', 'GCHPchem',
                           'CloudConvFlux_IDCHP    ', 'GCHPchem',
                           'CloudConvFlux_IDC      ', 'GCHPchem',
                           'CloudConvFlux_IDHDP    ', 'GCHPchem',
                           'CloudConvFlux_IDHPE    ', 'GCHPchem',
                           'CloudConvFlux_IDN      ', 'GCHPchem',
                           'CloudConvFlux_IEPOXA   ', 'GCHPchem',
                           'CloudConvFlux_IEPOXB   ', 'GCHPchem',
                           'CloudConvFlux_IEPOXD   ', 'GCHPchem',
                           'CloudConvFlux_IHN1     ', 'GCHPchem',
                           'CloudConvFlux_IHN2     ', 'GCHPchem',
                           'CloudConvFlux_IHN3     ', 'GCHPchem',
                           'CloudConvFlux_IHN4     ', 'GCHPchem',
                           'CloudConvFlux_I        ', 'GCHPchem',
                           'CloudConvFlux_INDIOL   ', 'GCHPchem',
                           'CloudConvFlux_INO      ', 'GCHPchem',
                           'CloudConvFlux_INPB     ', 'GCHPchem',
                           'CloudConvFlux_INPD     ', 'GCHPchem',
                           'CloudConvFlux_IO       ', 'GCHPchem',
                           'CloudConvFlux_IONITA   ', 'GCHPchem',
                           'CloudConvFlux_IONO2    ', 'GCHPchem',
                           'CloudConvFlux_IONO     ', 'GCHPchem',
                           'CloudConvFlux_IPRNO3   ', 'GCHPchem',
                           'CloudConvFlux_ISALA    ', 'GCHPchem',
                           'CloudConvFlux_ISALC    ', 'GCHPchem',
                           'CloudConvFlux_ISOP     ', 'GCHPchem',
                           'CloudConvFlux_ITCN     ', 'GCHPchem',
                           'CloudConvFlux_ITHN     ', 'GCHPchem',
                           'CloudConvFlux_LIMO     ', 'GCHPchem',
                           'CloudConvFlux_LVOC     ', 'GCHPchem',
                           'CloudConvFlux_LVOCOA   ', 'GCHPchem',
                           'CloudConvFlux_MACR1OOH ', 'GCHPchem',
                           'CloudConvFlux_MACR     ', 'GCHPchem',
                           'CloudConvFlux_MAP      ', 'GCHPchem',
                           'CloudConvFlux_MCRDH    ', 'GCHPchem',
                           'CloudConvFlux_MCRENOL  ', 'GCHPchem',
                           'CloudConvFlux_MCRHNB   ', 'GCHPchem',
                           'CloudConvFlux_MCRHN    ', 'GCHPchem',
                           'CloudConvFlux_MCRHP    ', 'GCHPchem',
                           'CloudConvFlux_MEK      ', 'GCHPchem',
                           'CloudConvFlux_MENO3    ', 'GCHPchem',
                           'CloudConvFlux_MGLY     ', 'GCHPchem',
                           'CloudConvFlux_MOH      ', 'GCHPchem',
                           'CloudConvFlux_MONITA   ', 'GCHPchem',
                           'CloudConvFlux_MONITS   ', 'GCHPchem',
                           'CloudConvFlux_MONITU   ', 'GCHPchem',
                           'CloudConvFlux_MPAN     ', 'GCHPchem',
                           'CloudConvFlux_MP       ', 'GCHPchem',
                           'CloudConvFlux_MPN      ', 'GCHPchem',
                           'CloudConvFlux_MSA      ', 'GCHPchem',
                           'CloudConvFlux_MTPA     ', 'GCHPchem',
                           'CloudConvFlux_MTPO     ', 'GCHPchem',
                           'CloudConvFlux_MVKDH    ', 'GCHPchem',
                           'CloudConvFlux_MVKHCB   ', 'GCHPchem',
                           'CloudConvFlux_MVKHC    ', 'GCHPchem',
                           'CloudConvFlux_MVKHP    ', 'GCHPchem',
                           'CloudConvFlux_MVK      ', 'GCHPchem',
                           'CloudConvFlux_MVKN     ', 'GCHPchem',
                           'CloudConvFlux_MVKPC    ', 'GCHPchem',
                           'CloudConvFlux_N2O5     ', 'GCHPchem',
                           'CloudConvFlux_N2O      ', 'GCHPchem',
                           'CloudConvFlux_NH3      ', 'GCHPchem',
                           'CloudConvFlux_NH4      ', 'GCHPchem',
                           'CloudConvFlux_NIT      ', 'GCHPchem',
                           'CloudConvFlux_NITs     ', 'GCHPchem',
                           'CloudConvFlux_NO2      ', 'GCHPchem',
                           'CloudConvFlux_NO3      ', 'GCHPchem',
                           'CloudConvFlux_NO       ', 'GCHPchem',
                           'CloudConvFlux_NPRNO3   ', 'GCHPchem',
                           'CloudConvFlux_O3       ', 'GCHPchem',
                           'CloudConvFlux_OClO     ', 'GCHPchem',
                           'CloudConvFlux_OCPI     ', 'GCHPchem',
                           'CloudConvFlux_OCPO     ', 'GCHPchem',
                           'CloudConvFlux_OCS      ', 'GCHPchem',
                           'CloudConvFlux_OIO      ', 'GCHPchem',
                           'CloudConvFlux_PAN      ', 'GCHPchem',
                           'CloudConvFlux_pFe      ', 'GCHPchem',
                           'CloudConvFlux_PIP      ', 'GCHPchem',
                           'CloudConvFlux_PP       ', 'GCHPchem',
                           'CloudConvFlux_PPN      ', 'GCHPchem',
                           'CloudConvFlux_PROPNN   ', 'GCHPchem',
                           'CloudConvFlux_PRPE     ', 'GCHPchem',
                           'CloudConvFlux_PRPN     ', 'GCHPchem',
                           'CloudConvFlux_PYAC     ', 'GCHPchem',
                           'CloudConvFlux_R4N2     ', 'GCHPchem',
                           'CloudConvFlux_R4P      ', 'GCHPchem',
                           'CloudConvFlux_RA3P     ', 'GCHPchem',
                           'CloudConvFlux_RB3P     ', 'GCHPchem',
                           'CloudConvFlux_RCHO     ', 'GCHPchem',
                           'CloudConvFlux_RIPA     ', 'GCHPchem',
                           'CloudConvFlux_RIPB     ', 'GCHPchem',
                           'CloudConvFlux_RIPC     ', 'GCHPchem',
                           'CloudConvFlux_RIPD     ', 'GCHPchem',
                           'CloudConvFlux_RP       ', 'GCHPchem',
                           'CloudConvFlux_SALA     ', 'GCHPchem',
                           'CloudConvFlux_SALAAL   ', 'GCHPchem',
                           'CloudConvFlux_SALACL   ', 'GCHPchem',
                           'CloudConvFlux_SALC     ', 'GCHPchem',
                           'CloudConvFlux_SALCAL   ', 'GCHPchem',
                           'CloudConvFlux_SALCCL   ', 'GCHPchem',
                           'CloudConvFlux_SO2      ', 'GCHPchem',
                           'CloudConvFlux_SO4      ', 'GCHPchem',
                           'CloudConvFlux_SO4s     ', 'GCHPchem',
                           'CloudConvFlux_SOAGX    ', 'GCHPchem',
                           'CloudConvFlux_SOAIE    ', 'GCHPchem',
                           'CloudConvFlux_SOAP     ', 'GCHPchem',
                           'CloudConvFlux_SOAS     ', 'GCHPchem',
                           'CloudConvFlux_TOLU     ', 'GCHPchem',
                           'CloudConvFlux_XYLE     ', 'GCHPchem',
::
#==============================================================================
# %%%%% THE ConcAboveSfc COLLECTION %%%%%
#
# Concentrations of O3 and HNO3 at a user-specified altitude above
# the surface, such as 10m.  Set the desired output altitude in meters
# in the DEPOSITION MENU of input.geos.
#
# NOTES:
# (1) This collection requires dry deposition to be turned on.
# (2) All of the fields in the collection must be turned on.
# (3) This collection is best used with mode "instantaneous".
#==============================================================================
  ConcAboveSfc.template:  '%y4%m2%d2_%h2%n2z.nc4',
  ConcAboveSfc.format:    'CFIO',
  ConcAboveSfc.frequency: 010000
  ConcAboveSfc.duration:  010000
  ConcAboveSfc.mode:      'instantaneous'
  ConcAboveSfc.fields:    'DryDepRaALT1                  ', 'GCHPchem',
                          'DryDepVelForALT1_O3           ', 'GCHPchem',
                          'DryDepVelForALT1_HNO3         ', 'GCHPchem',
                          'SpeciesConcALT1_O3            ', 'GCHPchem',
                          'SpeciesConcALT1_HNO3          ', 'GCHPchem',
::
#==============================================================================
# %%%%% THE ConcAfterChem COLLECTION %%%%%
#
# Concentrations of OH, HO2, O1D, O3P immediately after exiting the KPP solver
# or OH after the CH4 specialty-simulation chemistry routine.
#
# OH:       Available for all full-chemistry simulations and CH4 specialty sim
# HO2:      Available for all full-chemistry simulations
# O1D, O3P: Availalbe for full-chemistry simulations using UCX mechanism
#==============================================================================
  ConcAfterChem.template:  '%y4%m2%d2_%h2%n2z.nc4',
  ConcAfterChem.format:    'CFIO',
  ConcAfterChem.frequency: 010000
  ConcAfterChem.duration:  010000
  ConcAfterChem.mode:      'time-averaged'
  ConcAfterChem.fields:    'OHconcAfterChem               ', 'GCHPchem',
                           'HO2concAfterChem              ', 'GCHPchem',
                           'O1DconcAfterChem              ', 'GCHPchem',
                           'O3PconcAfterChem              ', 'GCHPchem',
::
#==============================================================================
# %%%%% THE DryDep COLLECTION %%%%%
#
# Dry depositon fluxes and velocities (for all dry-depositing species)
#
# Available for all simuations that have dry-depositing species
#==============================================================================
  DryDep.template:        '%y4%m2%d2_%h2%n2z.nc4',
  DryDep.format:          'CFIO',
  DryDep.frequency:       010000
  DryDep.duration:        010000
  DryDep.mode:            'time-averaged'
  DryDep.fields:          'DryDepVel_ACET      ', 'GCHPchem',
                          'DryDepVel_ACTA      ', 'GCHPchem',
                          'DryDepVel_AERI      ', 'GCHPchem',
                          'DryDepVel_ALD2      ', 'GCHPchem',
                          'DryDepVel_ATOOH     ', 'GCHPchem',
                          'DryDepVel_BCPI      ', 'GCHPchem',
                          'DryDepVel_BCPO      ', 'GCHPchem',
                          'DryDepVel_Br2       ', 'GCHPchem',
                          'DryDepVel_BrNO3     ', 'GCHPchem',
                          'DryDepVel_BrSALA    ', 'GCHPchem',
                          'DryDepVel_BrSALC    ', 'GCHPchem',
                          'DryDepVel_CH2O      ', 'GCHPchem',
                          'DryDepVel_ClNO3     ', 'GCHPchem',
                          'DryDepVel_DST1      ', 'GCHPchem',
                          'DryDepVel_DST2      ', 'GCHPchem',
                          'DryDepVel_DST3      ', 'GCHPchem',
                          'DryDepVel_DST4      ', 'GCHPchem',
                          'DryDepVel_EOH       ', 'GCHPchem',
                          'DryDepVel_ETHLN     ', 'GCHPchem',
                          'DryDepVel_ETNO3     ', 'GCHPchem',
                          'DryDepVel_ETP       ', 'GCHPchem',
                          'DryDepVel_GLYC      ', 'GCHPchem',
                          'DryDepVel_GLYX      ', 'GCHPchem',
                          'DryDepVel_H2O2      ', 'GCHPchem',
                          'DryDepVel_HAC       ', 'GCHPchem',
                          'DryDepVel_HBr       ', 'GCHPchem',
                          'DryDepVel_HC5A      ', 'GCHPchem',
                          'DryDepVel_HCl       ', 'GCHPchem',
                          'DryDepVel_HCOOH     ', 'GCHPchem',
                          'DryDepVel_HI        ', 'GCHPchem',
                          'DryDepVel_HMHP      ', 'GCHPchem',
                          'DryDepVel_HMML      ', 'GCHPchem',
                          'DryDepVel_HNO3      ', 'GCHPchem',
                          'DryDepVel_HOBr      ', 'GCHPchem',
                          'DryDepVel_HOCl      ', 'GCHPchem',
                          'DryDepVel_HOI       ', 'GCHPchem',
                          'DryDepVel_HONIT     ', 'GCHPchem',
                          'DryDepVel_HPALD1    ', 'GCHPchem',
                          'DryDepVel_HPALD2    ', 'GCHPchem',
                          'DryDepVel_HPALD3    ', 'GCHPchem',
                          'DryDepVel_HPALD4    ', 'GCHPchem',
                          'DryDepVel_HPETHNL   ', 'GCHPchem',
                          'DryDepVel_I2        ', 'GCHPchem',
                          'DryDepVel_I2O2      ', 'GCHPchem',
                          'DryDepVel_I2O3      ', 'GCHPchem',
                          'DryDepVel_I2O4      ', 'GCHPchem',
                          'DryDepVel_IBr       ', 'GCHPchem',
                          'DryDepVel_ICHE      ', 'GCHPchem',
                          'DryDepVel_ICl       ', 'GCHPchem',
                          'DryDepVel_ICN       ', 'GCHPchem',
                          'DryDepVel_ICPDH     ', 'GCHPchem',
                          'DryDepVel_IDC       ', 'GCHPchem',
                          'DryDepVel_IDCHP     ', 'GCHPchem',
                          'DryDepVel_IDHDP     ', 'GCHPchem',
                          'DryDepVel_IDHPE     ', 'GCHPchem',
                          'DryDepVel_IDN       ', 'GCHPchem',
                          'DryDepVel_IEPOXA    ', 'GCHPchem',
                          'DryDepVel_IEPOXB    ', 'GCHPchem',
                          'DryDepVel_IEPOXD    ', 'GCHPchem',
                          'DryDepVel_IHN1      ', 'GCHPchem',
                          'DryDepVel_IHN2      ', 'GCHPchem',
                          'DryDepVel_IHN3      ', 'GCHPchem',
                          'DryDepVel_IHN4      ', 'GCHPchem',
                          'DryDepVel_INDIOL    ', 'GCHPchem',
                          'DryDepVel_INPB      ', 'GCHPchem',
                          'DryDepVel_INPD      ', 'GCHPchem',
                          'DryDepVel_IONITA    ', 'GCHPchem',
                          'DryDepVel_IONO2     ', 'GCHPchem',
                          'DryDepVel_IONO      ', 'GCHPchem',
                          'DryDepVel_IPRNO3    ', 'GCHPchem',
                          'DryDepVel_ISALA     ', 'GCHPchem',
                          'DryDepVel_ISALC     ', 'GCHPchem',
                          'DryDepVel_ITCN      ', 'GCHPchem',
                          'DryDepVel_ITHN      ', 'GCHPchem',
                          'DryDepVel_LIMO      ', 'GCHPchem',
                          'DryDepVel_LVOC      ', 'GCHPchem',
                          'DryDepVel_LVOCOA    ', 'GCHPchem',
                          'DryDepVel_MACR1OOH  ', 'GCHPchem',
                          'DryDepVel_MACR      ', 'GCHPchem',
                          'DryDepVel_MAP       ', 'GCHPchem',
                          'DryDepVel_MCRDH     ', 'GCHPchem',
                          'DryDepVel_MCRENOL   ', 'GCHPchem',
                          'DryDepVel_MCRHNB    ', 'GCHPchem',
                          'DryDepVel_MCRHN     ', 'GCHPchem',
                          'DryDepVel_MCRHP     ', 'GCHPchem',
                          'DryDepVel_MENO3     ', 'GCHPchem',
                          'DryDepVel_MGLY      ', 'GCHPchem',
                          'DryDepVel_MOH       ', 'GCHPchem',
                          'DryDepVel_MONITA    ', 'GCHPchem',
                          'DryDepVel_MONITS    ', 'GCHPchem',
                          'DryDepVel_MONITU    ', 'GCHPchem',
                          'DryDepVel_MPAN      ', 'GCHPchem',
                          'DryDepVel_MSA       ', 'GCHPchem',
                          'DryDepVel_MTPA      ', 'GCHPchem',
                          'DryDepVel_MTPO      ', 'GCHPchem',
                          'DryDepVel_MVKDH     ', 'GCHPchem',
                          'DryDepVel_MVK       ', 'GCHPchem',
                          'DryDepVel_MVKHCB    ', 'GCHPchem',
                          'DryDepVel_MVKHC     ', 'GCHPchem',
                          'DryDepVel_MVKHP     ', 'GCHPchem',
                          'DryDepVel_MVKN      ', 'GCHPchem',
                          'DryDepVel_MVKPC     ', 'GCHPchem',
                          'DryDepVel_N2O5      ', 'GCHPchem',
                          'DryDepVel_NH3       ', 'GCHPchem',
                          'DryDepVel_NH4       ', 'GCHPchem',
                          'DryDepVel_NIT       ', 'GCHPchem',
                          'DryDepVel_NITs      ', 'GCHPchem',
                          'DryDepVel_NO2       ', 'GCHPchem',
                          'DryDepVel_NPRNO3    ', 'GCHPchem',
                          'DryDepVel_O3        ', 'GCHPchem',
                          'DryDepVel_OCPI      ', 'GCHPchem',
                          'DryDepVel_OCPO      ', 'GCHPchem',
                          'DryDepVel_PAN       ', 'GCHPchem',
                          'DryDepVel_pFe       ', 'GCHPchem',
                          'DryDepVel_PP        ', 'GCHPchem',
                          'DryDepVel_PPN       ', 'GCHPchem',
                          'DryDepVel_PROPNN    ', 'GCHPchem',
                          'DryDepVel_PRPN      ', 'GCHPchem',
                          'DryDepVel_PYAC      ', 'GCHPchem',
                          'DryDepVel_R4N2      ', 'GCHPchem',
                          'DryDepVel_R4P       ', 'GCHPchem',
                          'DryDepVel_RA3P      ', 'GCHPchem',
                          'DryDepVel_RB3P      ', 'GCHPchem',
                          'DryDepVel_RIPA      ', 'GCHPchem',
                          'DryDepVel_RIPB      ', 'GCHPchem',
                          'DryDepVel_RIPC      ', 'GCHPchem',
                          'DryDepVel_RIPD      ', 'GCHPchem',
                          'DryDepVel_RP        ', 'GCHPchem',
                          'DryDepVel_SALA      ', 'GCHPchem',
                          'DryDepVel_SALAAL    ', 'GCHPchem',
                          'DryDepVel_SALACL    ', 'GCHPchem',
                          'DryDepVel_SALC      ', 'GCHPchem',
                          'DryDepVel_SALCAL    ', 'GCHPchem',
                          'DryDepVel_SALCCL    ', 'GCHPchem',
                          'DryDepVel_SO2       ', 'GCHPchem',
                          'DryDepVel_SO4       ', 'GCHPchem',
                          'DryDepVel_SO4s      ', 'GCHPchem',
                          'DryDepVel_SOAGX     ', 'GCHPchem',
                          'DryDepVel_SOAIE     ', 'GCHPchem',
                          'DryDepVel_SOAS      ', 'GCHPchem',
                          'DryDep_ACET         ', 'GCHPchem',
                          'DryDep_ACTA         ', 'GCHPchem',
                          'DryDep_AERI         ', 'GCHPchem',
                          'DryDep_ALD2         ', 'GCHPchem',
                          'DryDep_ATOOH        ', 'GCHPchem',
                          'DryDep_BCPI         ', 'GCHPchem',
                          'DryDep_BCPO         ', 'GCHPchem',
                          'DryDep_Br2          ', 'GCHPchem',
                          'DryDep_BrNO3        ', 'GCHPchem',
                          'DryDep_BrSALA       ', 'GCHPchem',
                          'DryDep_BrSALC       ', 'GCHPchem',
                          'DryDep_CH2O         ', 'GCHPchem',
                          'DryDep_ClNO3        ', 'GCHPchem',
                          'DryDep_DST1         ', 'GCHPchem',
                          'DryDep_DST2         ', 'GCHPchem',
                          'DryDep_DST3         ', 'GCHPchem',
                          'DryDep_DST4         ', 'GCHPchem',
                          'DryDep_EOH          ', 'GCHPchem',
                          'DryDep_ETHLN        ', 'GCHPchem',
                          'DryDep_ETNO3        ', 'GCHPchem',
                          'DryDep_ETP          ', 'GCHPchem',
                          'DryDep_GLYC         ', 'GCHPchem',
                          'DryDep_GLYX         ', 'GCHPchem',
                          'DryDep_H2O2         ', 'GCHPchem',
                          'DryDep_HAC          ', 'GCHPchem',
                          'DryDep_HBr          ', 'GCHPchem',
                          'DryDep_HC5A         ', 'GCHPchem',
                          'DryDep_HCl          ', 'GCHPchem',
                          'DryDep_HCOOH        ', 'GCHPchem',
                          'DryDep_HI           ', 'GCHPchem',
                          'DryDep_HMHP         ', 'GCHPchem',
                          'DryDep_HMML         ', 'GCHPchem',
                          'DryDep_HNO3         ', 'GCHPchem',
                          'DryDep_HOBr         ', 'GCHPchem',
                          'DryDep_HOCl         ', 'GCHPchem',
                          'DryDep_HOI          ', 'GCHPchem',
                          'DryDep_HONIT        ', 'GCHPchem',
                          'DryDep_HPALD1       ', 'GCHPchem',
                          'DryDep_HPALD2       ', 'GCHPchem',
                          'DryDep_HPALD3       ', 'GCHPchem',
                          'DryDep_HPALD4       ', 'GCHPchem',
                          'DryDep_HPETHNL      ', 'GCHPchem',
                          'DryDep_I2           ', 'GCHPchem',
                          'DryDep_I2O2         ', 'GCHPchem',
                          'DryDep_I2O3         ', 'GCHPchem',
                          'DryDep_I2O4         ', 'GCHPchem',
                          'DryDep_IBr          ', 'GCHPchem',
                          'DryDep_ICHE         ', 'GCHPchem',
                          'DryDep_ICl          ', 'GCHPchem',
                          'DryDep_ICN          ', 'GCHPchem',
                          'DryDep_ICPDH        ', 'GCHPchem',
                          'DryDep_IDC          ', 'GCHPchem',
                          'DryDep_IDCHP        ', 'GCHPchem',
                          'DryDep_IDHDP        ', 'GCHPchem',
                          'DryDep_IDHPE        ', 'GCHPchem',
                          'DryDep_IDN          ', 'GCHPchem',
                          'DryDep_IEPOXA       ', 'GCHPchem',
                          'DryDep_IEPOXB       ', 'GCHPchem',
                          'DryDep_IEPOXD       ', 'GCHPchem',
                          'DryDep_IHN1         ', 'GCHPchem',
                          'DryDep_IHN2         ', 'GCHPchem',
                          'DryDep_IHN3         ', 'GCHPchem',
                          'DryDep_IHN4         ', 'GCHPchem',
                          'DryDep_INDIOL       ', 'GCHPchem',
                          'DryDep_INPB         ', 'GCHPchem',
                          'DryDep_INPD         ', 'GCHPchem',
                          'DryDep_IONITA       ', 'GCHPchem',
                          'DryDep_IONO2        ', 'GCHPchem',
                          'DryDep_IONO         ', 'GCHPchem',
                          'DryDep_IPRNO3       ', 'GCHPchem',
                          'DryDep_ISALA        ', 'GCHPchem',
                          'DryDep_ISALC        ', 'GCHPchem',
                          'DryDep_ITCN         ', 'GCHPchem',
                          'DryDep_ITHN         ', 'GCHPchem',
                          'DryDep_LIMO         ', 'GCHPchem',
                          'DryDep_LVOC         ', 'GCHPchem',
                          'DryDep_LVOCOA       ', 'GCHPchem',
                          'DryDep_MACR1OOH     ', 'GCHPchem',
                          'DryDep_MACR         ', 'GCHPchem',
                          'DryDep_MAP          ', 'GCHPchem',
                          'DryDep_MCRDH        ', 'GCHPchem',
                          'DryDep_MCRENOL      ', 'GCHPchem',
                          'DryDep_MCRHNB       ', 'GCHPchem',
                          'DryDep_MCRHN        ', 'GCHPchem',
                          'DryDep_MCRHP        ', 'GCHPchem',
                          'DryDep_MENO3        ', 'GCHPchem',
                          'DryDep_MGLY         ', 'GCHPchem',
                          'DryDep_MOH          ', 'GCHPchem',
                          'DryDep_MONITA       ', 'GCHPchem',
                          'DryDep_MONITS       ', 'GCHPchem',
                          'DryDep_MONITU       ', 'GCHPchem',
                          'DryDep_MPAN         ', 'GCHPchem',
                          'DryDep_MSA          ', 'GCHPchem',
                          'DryDep_MTPA         ', 'GCHPchem',
                          'DryDep_MTPO         ', 'GCHPchem',
                          'DryDep_MVKDH        ', 'GCHPchem',
                          'DryDep_MVK          ', 'GCHPchem',
                          'DryDep_MVKHCB       ', 'GCHPchem',
                          'DryDep_MVKHC        ', 'GCHPchem',
                          'DryDep_MVKHP        ', 'GCHPchem',
                          'DryDep_MVKN         ', 'GCHPchem',
                          'DryDep_MVKPC        ', 'GCHPchem',
                          'DryDep_N2O5         ', 'GCHPchem',
                          'DryDep_NH3          ', 'GCHPchem',
                          'DryDep_NH4          ', 'GCHPchem',
                          'DryDep_NIT          ', 'GCHPchem',
                          'DryDep_NITs         ', 'GCHPchem',
                          'DryDep_NO2          ', 'GCHPchem',
                          'DryDep_NPRNO3       ', 'GCHPchem',
                          'DryDep_O3           ', 'GCHPchem',
                          'DryDep_OCPI         ', 'GCHPchem',
                          'DryDep_OCPO         ', 'GCHPchem',
                          'DryDep_PAN          ', 'GCHPchem',
                          'DryDep_pFe          ', 'GCHPchem',
                          'DryDep_PP           ', 'GCHPchem',
                          'DryDep_PPN          ', 'GCHPchem',
                          'DryDep_PROPNN       ', 'GCHPchem',
                          'DryDep_PRPN         ', 'GCHPchem',
                          'DryDep_PYAC         ', 'GCHPchem',
                          'DryDep_R4N2         ', 'GCHPchem',
                          'DryDep_R4P          ', 'GCHPchem',
                          'DryDep_RA3P         ', 'GCHPchem',
                          'DryDep_RB3P         ', 'GCHPchem',
                          'DryDep_RIPA         ', 'GCHPchem',
                          'DryDep_RIPB         ', 'GCHPchem',
                          'DryDep_RIPC         ', 'GCHPchem',
                          'DryDep_RIPD         ', 'GCHPchem',
                          'DryDep_RP           ', 'GCHPchem',
                          'DryDep_SALA         ', 'GCHPchem',
                          'DryDep_SALAAL       ', 'GCHPchem',
                          'DryDep_SALACL       ', 'GCHPchem',
                          'DryDep_SALC         ', 'GCHPchem',
                          'DryDep_SALCAL       ', 'GCHPchem',
                          'DryDep_SALCCL       ', 'GCHPchem',
                          'DryDep_SO2          ', 'GCHPchem',
                          'DryDep_SO4          ', 'GCHPchem',
                          'DryDep_SO4s         ', 'GCHPchem',
                          'DryDep_SOAGX        ', 'GCHPchem',
                          'DryDep_SOAIE        ', 'GCHPchem',
                          'DryDep_SOAS         ', 'GCHPchem',
::
#==============================================================================
# %%%%% THE JValues COLLECTION %%%%%
#
# Photolysis rates (from the FAST-JX photolysis module)
#
# Available for all full-chemistry simulations
#==============================================================================
  JValues.template:       '%y4%m2%d2_%h2%n2z.nc4',
  JValues.format:         'CFIO',
  JValues.frequency:      010000
  JValues.duration:       010000
  JValues.mode:           'time-averaged'
  JValues.fields:         'Jval_ACET           ', 'GCHPchem',
                          'Jval_ALD2           ', 'GCHPchem',
                          'Jval_ATOOH          ', 'GCHPchem',
                          'Jval_Br2            ', 'GCHPchem',
                          'Jval_BrCl           ', 'GCHPchem',
                          'Jval_BrNO2          ', 'GCHPchem',
                          'Jval_BrNO3          ', 'GCHPchem',
                          'Jval_BrO            ', 'GCHPchem',
                          'Jval_CCl4           ', 'GCHPchem',
                          'Jval_CFC113         ', 'GCHPchem',
                          'Jval_CFC114         ', 'GCHPchem',
                          'Jval_CFC115         ', 'GCHPchem',
                          'Jval_CFC11          ', 'GCHPchem',
                          'Jval_CFC12          ', 'GCHPchem',
                          'Jval_CH2Br2         ', 'GCHPchem',
                          'Jval_CH2Cl2         ', 'GCHPchem',
                          'Jval_CH2I2          ', 'GCHPchem',
                          'Jval_CH2IBr         ', 'GCHPchem',
                          'Jval_CH2ICl         ', 'GCHPchem',
                          'Jval_CH2O           ', 'GCHPchem',
                          'Jval_CH3Br          ', 'GCHPchem',
                          'Jval_CH3CCl3        ', 'GCHPchem',
                          'Jval_CH3Cl          ', 'GCHPchem',
                          'Jval_CH3I           ', 'GCHPchem',
                          'Jval_CHBr3          ', 'GCHPchem',
                          'Jval_CHCl3          ', 'GCHPchem',
                          'Jval_Cl2O2          ', 'GCHPchem',
                          'Jval_Cl2            ', 'GCHPchem',
                          'Jval_ClNO2          ', 'GCHPchem',
                          'Jval_ClNO3          ', 'GCHPchem',
                          'Jval_ClOO           ', 'GCHPchem',
                          'Jval_ClO            ', 'GCHPchem',
                          'Jval_ETHLN          ', 'GCHPchem',
                          'Jval_ETNO3          ', 'GCHPchem',
                          'Jval_ETP            ', 'GCHPchem',
                          'Jval_GLYC           ', 'GCHPchem',
                          'Jval_GLYX           ', 'GCHPchem',
                          'Jval_H1211          ', 'GCHPchem',
                          'Jval_H1301          ', 'GCHPchem',
                          'Jval_H2402          ', 'GCHPchem',
                          'Jval_H2O2           ', 'GCHPchem',
                          'Jval_HAC            ', 'GCHPchem',
                          'Jval_HC5A           ', 'GCHPchem',
                          'Jval_HCFC123        ', 'GCHPchem',
                          'Jval_HCFC141B       ', 'GCHPchem',
                          'Jval_HCFC142B       ', 'GCHPchem',
                          'Jval_HCFC22         ', 'GCHPchem',
                          'Jval_HMHP           ', 'GCHPchem',
                          'Jval_HNO2           ', 'GCHPchem',
                          'Jval_HNO3           ', 'GCHPchem',
                          'Jval_HNO4           ', 'GCHPchem',
                          'Jval_HOBr           ', 'GCHPchem',
                          'Jval_HOCl           ', 'GCHPchem',
                          'Jval_HOI            ', 'GCHPchem',
                          'Jval_HONIT          ', 'GCHPchem',
                          'Jval_HPALD1         ', 'GCHPchem',
                          'Jval_HPALD2         ', 'GCHPchem',
                          'Jval_HPALD3         ', 'GCHPchem',
                          'Jval_HPALD4         ', 'GCHPchem',
                          'Jval_HPETHNL        ', 'GCHPchem',
                          'Jval_I2O2           ', 'GCHPchem',
                          'Jval_I2O3           ', 'GCHPchem',
                          'Jval_I2O4           ', 'GCHPchem',
                          'Jval_I2             ', 'GCHPchem',
                          'Jval_IBr            ', 'GCHPchem',
                          'Jval_ICl            ', 'GCHPchem',
                          'Jval_ICN            ', 'GCHPchem',
                          'Jval_ICPDH          ', 'GCHPchem',
                          'Jval_IDCHP          ', 'GCHPchem',
                          'Jval_IDHDP          ', 'GCHPchem',
                          'Jval_IDHPE          ', 'GCHPchem',
                          'Jval_IDN            ', 'GCHPchem',
                          'Jval_IHN1           ', 'GCHPchem',
                          'Jval_IHN2           ', 'GCHPchem',
                          'Jval_IHN3           ', 'GCHPchem',
                          'Jval_IHN4           ', 'GCHPchem',
                          'Jval_INO            ', 'GCHPchem',
                          'Jval_INPB           ', 'GCHPchem',
                          'Jval_INPD           ', 'GCHPchem',
                          'Jval_IONO2          ', 'GCHPchem',
                          'Jval_IONO           ', 'GCHPchem',
                          'Jval_IO             ', 'GCHPchem',
                          'Jval_IPRNO3         ', 'GCHPchem',
                          'Jval_ITCN           ', 'GCHPchem',
                          'Jval_ITHN           ', 'GCHPchem',
                          'Jval_MACR1OOH       ', 'GCHPchem',
                          'Jval_MACR           ', 'GCHPchem',
                          'Jval_MAP            ', 'GCHPchem',
                          'Jval_MCRENOL        ', 'GCHPchem',
                          'Jval_MCRHNB         ', 'GCHPchem',
                          'Jval_MCRHN          ', 'GCHPchem',
                          'Jval_MCRHP          ', 'GCHPchem',
                          'Jval_MEK            ', 'GCHPchem',
                          'Jval_MENO3          ', 'GCHPchem',
                          'Jval_MGLY           ', 'GCHPchem',
                          'Jval_MONITS         ', 'GCHPchem',
                          'Jval_MONITU         ', 'GCHPchem',
                          'Jval_MPAN           ', 'GCHPchem',
                          'Jval_MPN            ', 'GCHPchem',
                          'Jval_MP             ', 'GCHPchem',
                          'Jval_MVKHCB         ', 'GCHPchem',
                          'Jval_MVKHC          ', 'GCHPchem',
                          'Jval_MVKHP          ', 'GCHPchem',
                          'Jval_MVKN           ', 'GCHPchem',
                          'Jval_MVKPC          ', 'GCHPchem',
                          'Jval_MVK            ', 'GCHPchem',
                          'Jval_N2O5           ', 'GCHPchem',
                          'Jval_N2O            ', 'GCHPchem',
                          'Jval_NIT            ', 'GCHPchem',
                          'Jval_NITs           ', 'GCHPchem',
                          'Jval_NO2            ', 'GCHPchem',
                          'Jval_NO3            ', 'GCHPchem',
                          'Jval_NO             ', 'GCHPchem',
                          'Jval_NPRNO3         ', 'GCHPchem',
                          'Jval_O2             ', 'GCHPchem',
                          'Jval_O3O1D          ', 'GCHPchem',
                          'Jval_O3O3P          ', 'GCHPchem',
                          'Jval_O3             ', 'GCHPchem',
                          'Jval_OClO           ', 'GCHPchem',
                          'Jval_OCS            ', 'GCHPchem',
                          'Jval_OIO            ', 'GCHPchem',
                          'Jval_PAN            ', 'GCHPchem',
                          'Jval_PIP            ', 'GCHPchem',
                          'Jval_PP             ', 'GCHPchem',
                          'Jval_PROPNN         ', 'GCHPchem',
                          'Jval_PRPN           ', 'GCHPchem',
                          'Jval_PYAC           ', 'GCHPchem',
                          'Jval_R4N2           ', 'GCHPchem',
                          'Jval_R4P            ', 'GCHPchem',
                          'Jval_RA3P           ', 'GCHPchem',
                          'Jval_RB3P           ', 'GCHPchem',
                          'Jval_RCHO           ', 'GCHPchem',
                          'Jval_RIPA           ', 'GCHPchem',
                          'Jval_RIPB           ', 'GCHPchem',
                          'Jval_RIPC           ', 'GCHPchem',
                          'Jval_RIPD           ', 'GCHPchem',
                          'Jval_RP             ', 'GCHPchem',
                          'Jval_SO4            ', 'GCHPchem',
::
#==============================================================================
# %%%%% THE KppDiags COLLECTION %%%%%
#
# Diagnostics from the KPP solver.
#
# Available for full-chemistry simulations (all variations)
#==============================================================================
  KppDiags.template:      '%y4%m2%d2_%h2%n2z.nc4',
  KppDiags.format:        'CFIO',
  KppDiags.frequency:     010000
  KppDiags.duration:      010000
  KppDiags.mode:          'time-averaged'
  KppDiags.fields:        'KppIntCounts                  ', 'GCHPchem',
                          'KppJacCounts                  ', 'GCHPchem',
                          'KppTotSteps                   ', 'GCHPchem',
                          'KppAccSteps                   ', 'GCHPchem',
                          'KppRejSteps                   ', 'GCHPchem',
                          'KppLuDecomps                  ', 'GCHPchem',
                          'KppSubsts                     ', 'GCHPchem',
                          'KppSmDecomps                  ', 'GCHPchem',
::
#==============================================================================
# %%%%% THE Metrics COLLECTION %%%%%
#
# Diagnostics for chemistry metrics such as global mean OH concentration,
# MCF lifetime, and CH4 lifetime.
#
# This diagnostic collection should always be left on.
# Use the run-directory script ./metrics_fullchem.py to print results.
#
# Commented-out diagnostic fields are available to use, but are not
# necessary for computing the relevant full-chemistry metrics.
#
# Available for full-chemistry and CH4 simulations only.
#==============================================================================
  Metrics.template:           '%y4%m2%d2_%h2%n2z.nc4',
  Metrics.format:             'CFIO',
  Metrics.frequency:          010000
  Metrics.duration:           010000
  Metrics.mode:               'time-averaged'
  Metrics.fields:             'AirMassColumnFull             ', 'GCHPchem',
                              'MCFlossInTrop                 ', 'GCHPchem',
                              'MeanOHcolumnFull              ', 'GCHPchem',
                              #'AirMassColumnTrop             ', 'GCHPchem',
                              #'CH4massColumnTrop             ', 'GCHPchem',
                              #'MeanCH4columnTrop             ', 'GCHPchem',
                              #'MeanOHcolumnTrop              ', 'GCHPchem',
::
#==============================================================================
# %%%%% THE LevelEdgeDiags COLLECTION %%%%%
#
# Diagnostics that are defined on grid box level edges
#
# Available for all simulations
#==============================================================================
  LevelEdgeDiags.template:  '%y4%m2%d2_%h2%n2z.nc4',
  LevelEdgeDiags.format:    'CFIO',
  LevelEdgeDiags.frequency: 010000
  LevelEdgeDiags.duration:  010000
  LevelEdgeDiags.mode:      'time-averaged'
  LevelEdgeDiags.fields:    'Met_CMFMC                     ', 'GCHPchem',
                            'Met_PEDGE                     ', 'GCHPchem',
                            'Met_PEDGEDRY                  ', 'GCHPchem',
                            'Met_PFICU                     ', 'GCHPchem',
                            'Met_PFILSAN                   ', 'GCHPchem',
                            'Met_PFLCU                     ', 'GCHPchem',
                            'Met_PFLLSAN                   ', 'GCHPchem',
::
#==============================================================================
# %%%%% THE ProdLoss COLLECTION %%%%%
#
# Chemical production and loss rates
#
# Available for full-chemistry, aerosol-only, tagO3, and tagCO simulations
#==============================================================================
  ProdLoss.template:      '%y4%m2%d2_%h2%n2z.nc4',
  ProdLoss.format:        'CFIO',
  ProdLoss.frequency:     010000
  ProdLoss.duration:      010000
  ProdLoss.mode:          'time-averaged'
  ProdLoss.fields:        'Prod_SO4                   ', 'GCHPchem',
                          'Prod_CO                    ', 'GCHPchem',
                          'Prod_Ox                    ', 'GCHPchem',
                          'Prod_H2O2                  ', 'GCHPchem',
                          'ProdBCPIfromBCPO           ', 'GCHPchem',
                          'ProdOCPIfromOCPO           ', 'GCHPchem',
                          'ProdSO4fromH2O2inCloud     ', 'GCHPchem',
                          'ProdSO4fromO2inCloudMetal  ', 'GCHPchem',
                          'ProdSO4fromO3inCloud       ', 'GCHPchem',
                          'ProdSO4fromO3inSeaSalt     ', 'GCHPchem',
                          'ProdSO4fromHOBrInCloud     ', 'GCHPchem',
                          'ProdSO4fromSRO3            ', 'GCHPchem',
                          'ProdSO4fromSRHOBr          ', 'GCHPchem',
                          'ProdSO4fromO3s             ', 'GCHPchem',
                          'Loss_CO                    ', 'GCHPchem',
                          'Loss_Ox                    ', 'GCHPchem',
                          'LossHNO3onSeaSalt          ', 'GCHPchem',
			  'ProdCOfromCH4              ', 'GCHPchem',
			  'ProdCOfromNMVOC            ', 'GCHPchem',
::
#==============================================================================
# %%%%% THE RRTMG COLLECTION %%%%%
#
# Radiative transfer data from RRTMG. IMPORTANT: Each additional line in
# this diagnostic will result in an additional RRTMG simulation!
#
# Available for full-chemistry
#==============================================================================
  RRTMG.template:   '%y4%m2%d2_%h2%n2z.nc4',
  RRTMG.format:     'CFIO',
  RRTMG.frequency:  030000
  RRTMG.duration:   030000
  RRTMG.mode:       'instantaneous'
  RRTMG.fields:     'RadAllSkyLWSurf_BASE ', 'GCHPchem',
                    'RadAllSkyLWSurf_NOO3 ', 'GCHPchem',
                    'RadAllSkyLWSurf_NOME ', 'GCHPchem',
                    'RadAllSkyLWSurf_NOSU ', 'GCHPchem',
                    'RadAllSkyLWSurf_NONI ', 'GCHPchem',
                    'RadAllSkyLWSurf_NOAM ', 'GCHPchem',
                    'RadAllSkyLWSurf_NOBC ', 'GCHPchem',
                    'RadAllSkyLWSurf_NOOA ', 'GCHPchem',
                    'RadAllSkyLWSurf_NOSS ', 'GCHPchem',
                    'RadAllSkyLWSurf_NODU ', 'GCHPchem',
                    'RadAllSkyLWSurf_NOPM ', 'GCHPchem',
                    'RadAllSkyLWSurf_NOST ', 'GCHPchem',
                    'RadAllSkySWSurf_BASE ', 'GCHPchem',
                    'RadAllSkySWSurf_NOO3 ', 'GCHPchem',
                    'RadAllSkySWSurf_NOME ', 'GCHPchem',
                    'RadAllSkySWSurf_NOSU ', 'GCHPchem',
                    'RadAllSkySWSurf_NONI ', 'GCHPchem',
                    'RadAllSkySWSurf_NOAM ', 'GCHPchem',
                    'RadAllSkySWSurf_NOBC ', 'GCHPchem',
                    'RadAllSkySWSurf_NOOA ', 'GCHPchem',
                    'RadAllSkySWSurf_NOSS ', 'GCHPchem',
                    'RadAllSkySWSurf_NODU ', 'GCHPchem',
                    'RadAllSkySWSurf_NOPM ', 'GCHPchem',
                    'RadAllSkySWSurf_NOST ', 'GCHPchem',
                    'RadClrSkyLWSurf_BASE ', 'GCHPchem',
                    'RadClrSkyLWSurf_NOO3 ', 'GCHPchem',
                    'RadClrSkyLWSurf_NOME ', 'GCHPchem',
                    'RadClrSkyLWSurf_NOSU ', 'GCHPchem',
                    'RadClrSkyLWSurf_NONI ', 'GCHPchem',
                    'RadClrSkyLWSurf_NOAM ', 'GCHPchem',
                    'RadClrSkyLWSurf_NOBC ', 'GCHPchem',
                    'RadClrSkyLWSurf_NOOA ', 'GCHPchem',
                    'RadClrSkyLWSurf_NOSS ', 'GCHPchem',
                    'RadClrSkyLWSurf_NODU ', 'GCHPchem',
                    'RadClrSkyLWSurf_NOPM ', 'GCHPchem',
                    'RadClrSkyLWSurf_NOST ', 'GCHPchem',
                    'RadClrSkySWSurf_BASE ', 'GCHPchem',
                    'RadClrSkySWSurf_NOO3 ', 'GCHPchem',
                    'RadClrSkySWSurf_NOME ', 'GCHPchem',
                    'RadClrSkySWSurf_NOSU ', 'GCHPchem',
                    'RadClrSkySWSurf_NONI ', 'GCHPchem',
                    'RadClrSkySWSurf_NOAM ', 'GCHPchem',
                    'RadClrSkySWSurf_NOBC ', 'GCHPchem',
                    'RadClrSkySWSurf_NOOA ', 'GCHPchem',
                    'RadClrSkySWSurf_NOSS ', 'GCHPchem',
                    'RadClrSkySWSurf_NODU ', 'GCHPchem',
                    'RadClrSkySWSurf_NOPM ', 'GCHPchem',
                    'RadClrSkySWSurf_NOST ', 'GCHPchem',
                    'RadAllSkyLWTOA_BASE  ', 'GCHPchem',
                    'RadAllSkyLWTOA_NOO3  ', 'GCHPchem',
                    'RadAllSkyLWTOA_NOME  ', 'GCHPchem',
                    'RadAllSkyLWTOA_NOSU  ', 'GCHPchem',
                    'RadAllSkyLWTOA_NONI  ', 'GCHPchem',
                    'RadAllSkyLWTOA_NOAM  ', 'GCHPchem',
                    'RadAllSkyLWTOA_NOBC  ', 'GCHPchem',
                    'RadAllSkyLWTOA_NOOA  ', 'GCHPchem',
                    'RadAllSkyLWTOA_NOSS  ', 'GCHPchem',
                    'RadAllSkyLWTOA_NODU  ', 'GCHPchem',
                    'RadAllSkyLWTOA_NOPM  ', 'GCHPchem',
                    'RadAllSkyLWTOA_NOST  ', 'GCHPchem',
                    'RadAllSkySWTOA_BASE  ', 'GCHPchem',
                    'RadAllSkySWTOA_NOO3  ', 'GCHPchem',
                    'RadAllSkySWTOA_NOME  ', 'GCHPchem',
                    'RadAllSkySWTOA_NOSU  ', 'GCHPchem',
                    'RadAllSkySWTOA_NONI  ', 'GCHPchem',
                    'RadAllSkySWTOA_NOAM  ', 'GCHPchem',
                    'RadAllSkySWTOA_NOBC  ', 'GCHPchem',
                    'RadAllSkySWTOA_NOOA  ', 'GCHPchem',
                    'RadAllSkySWTOA_NOSS  ', 'GCHPchem',
                    'RadAllSkySWTOA_NODU  ', 'GCHPchem',
                    'RadAllSkySWTOA_NOPM  ', 'GCHPchem',
                    'RadAllSkySWTOA_NOST  ', 'GCHPchem',
                    'RadClrSkyLWTOA_BASE  ', 'GCHPchem',
                    'RadClrSkyLWTOA_NOO3  ', 'GCHPchem',
[...]
                          'WetLossConv_MVKDH         ', 'GCHPchem',
                          'WetLossConv_MVKHCB        ', 'GCHPchem',
                          'WetLossConv_MVKHC         ', 'GCHPchem',
                          'WetLossConv_MVKHP         ', 'GCHPchem',
                          'WetLossConv_MVK           ', 'GCHPchem',
                          'WetLossConv_MVKN          ', 'GCHPchem',
                          'WetLossConv_MVKPC         ', 'GCHPchem',
                          'WetLossConv_NH3           ', 'GCHPchem',
                          'WetLossConv_NH4           ', 'GCHPchem',
                          'WetLossConv_NIT           ', 'GCHPchem',
                          'WetLossConv_NITs          ', 'GCHPchem',
                          'WetLossConv_OCPI          ', 'GCHPchem',
                          'WetLossConv_OCPO          ', 'GCHPchem',
                          'WetLossConv_PAN           ', 'GCHPchem',
                          'WetLossConv_pFe           ', 'GCHPchem',
                          'WetLossConv_PP            ', 'GCHPchem',
                          'WetLossConv_PPN           ', 'GCHPchem',
                          'WetLossConv_PROPNN        ', 'GCHPchem',
                          'WetLossConv_PRPE          ', 'GCHPchem',
                          'WetLossConv_PRPN          ', 'GCHPchem',
                          'WetLossConv_PYAC          ', 'GCHPchem',
                          'WetLossConv_R4N2          ', 'GCHPchem',
                          'WetLossConv_R4P           ', 'GCHPchem',
                          'WetLossConv_RA3P          ', 'GCHPchem',
                          'WetLossConv_RB3P          ', 'GCHPchem',
                          'WetLossConv_RIPA          ', 'GCHPchem',
                          'WetLossConv_RIPB          ', 'GCHPchem',
                          'WetLossConv_RIPC          ', 'GCHPchem',
                          'WetLossConv_RIPD          ', 'GCHPchem',
                          'WetLossConv_RP            ', 'GCHPchem',
                          'WetLossConv_SALA          ', 'GCHPchem',
                          'WetLossConv_SALAAL        ', 'GCHPchem',
                          'WetLossConv_SALACL        ', 'GCHPchem',
                          'WetLossConv_SALC          ', 'GCHPchem',
                          'WetLossConv_SALCAL        ', 'GCHPchem',
                          'WetLossConv_SALCCL        ', 'GCHPchem',
                          'WetLossConv_SO2           ', 'GCHPchem',
                          'WetLossConv_SO4           ', 'GCHPchem',
                          'WetLossConv_SO4s          ', 'GCHPchem',
                          'WetLossConv_SOAGX         ', 'GCHPchem',
                          'WetLossConv_SOAIE         ', 'GCHPchem',
                          'WetLossConv_SOAS          ', 'GCHPchem',
                          'WetLossConvFrac_ACTA      ', 'GCHPchem',
                          'WetLossConvFrac_AERI      ', 'GCHPchem',
                          'WetLossConvFrac_ALD2      ', 'GCHPchem',
                          'WetLossConvFrac_ATOOH     ', 'GCHPchem',
                          'WetLossConvFrac_BCPI      ', 'GCHPchem',
                          'WetLossConvFrac_BCPO      ', 'GCHPchem',
                          'WetLossConvFrac_Br2       ', 'GCHPchem',
                          'WetLossConvFrac_BrSALA    ', 'GCHPchem',
                          'WetLossConvFrac_BrSALC    ', 'GCHPchem',
                          'WetLossConvFrac_CH2O      ', 'GCHPchem',
                          'WetLossConvFrac_DST1      ', 'GCHPchem',
                          'WetLossConvFrac_DST2      ', 'GCHPchem',
                          'WetLossConvFrac_DST3      ', 'GCHPchem',
                          'WetLossConvFrac_DST4      ', 'GCHPchem',
                          'WetLossConvFrac_EOH       ', 'GCHPchem',
                          'WetLossConvFrac_ETHLN     ', 'GCHPchem',
                          'WetLossConvFrac_ETP       ', 'GCHPchem',
                          'WetLossConvFrac_GLYC      ', 'GCHPchem',
                          'WetLossConvFrac_GLYX      ', 'GCHPchem',
                          'WetLossConvFrac_H2O2      ', 'GCHPchem',
                          'WetLossConvFrac_HAC       ', 'GCHPchem',
                          'WetLossConvFrac_HBr       ', 'GCHPchem',
                          'WetLossConvFrac_HC5A      ', 'GCHPchem',
                          'WetLossConvFrac_HCl       ', 'GCHPchem',
                          'WetLossConvFrac_HCOOH     ', 'GCHPchem',
                          'WetLossConvFrac_HI        ', 'GCHPchem',
                          'WetLossConvFrac_HMHP      ', 'GCHPchem',
                          'WetLossConvFrac_HMML      ', 'GCHPchem',
                          'WetLossConvFrac_HNO3      ', 'GCHPchem',
                          'WetLossConvFrac_HOBr      ', 'GCHPchem',
                          'WetLossConvFrac_HOCl      ', 'GCHPchem',
                          'WetLossConvFrac_HOI       ', 'GCHPchem',
                          'WetLossConvFrac_HONIT     ', 'GCHPchem',
                          'WetLossConvFrac_HPETHNL   ', 'GCHPchem',
                          'WetLossConvFrac_I2        ', 'GCHPchem',
                          'WetLossConvFrac_I2O2      ', 'GCHPchem',
                          'WetLossConvFrac_I2O3      ', 'GCHPchem',
                          'WetLossConvFrac_I2O4      ', 'GCHPchem',
                          'WetLossConvFrac_IBr       ', 'GCHPchem',
                          'WetLossConvFrac_ICHE      ', 'GCHPchem',
                          'WetLossConvFrac_ICl       ', 'GCHPchem',
                          'WetLossConvFrac_ICN       ', 'GCHPchem',
                          'WetLossConvFrac_ICPDH     ', 'GCHPchem',
                          'WetLossConvFrac_IDCHP     ', 'GCHPchem',
                          'WetLossConvFrac_IDHDP     ', 'GCHPchem',
                          'WetLossConvFrac_IDHPE     ', 'GCHPchem',
                          'WetLossConvFrac_IDN       ', 'GCHPchem',
                          'WetLossConvFrac_IEPOXA    ', 'GCHPchem',
                          'WetLossConvFrac_IEPOXB    ', 'GCHPchem',
                          'WetLossConvFrac_IEPOXD    ', 'GCHPchem',
                          'WetLossConvFrac_IHN1      ', 'GCHPchem',
                          'WetLossConvFrac_IHN2      ', 'GCHPchem',
                          'WetLossConvFrac_IHN3      ', 'GCHPchem',
                          'WetLossConvFrac_IHN4      ', 'GCHPchem',
                          'WetLossConvFrac_INDIOL    ', 'GCHPchem',
                          'WetLossConvFrac_INPB      ', 'GCHPchem',
                          'WetLossConvFrac_INPD      ', 'GCHPchem',
                          'WetLossConvFrac_IONITA    ', 'GCHPchem',
                          'WetLossConvFrac_IONO2     ', 'GCHPchem',
                          'WetLossConvFrac_IONO      ', 'GCHPchem',
                          'WetLossConvFrac_ISALA     ', 'GCHPchem',
                          'WetLossConvFrac_ISALC     ', 'GCHPchem',
                          'WetLossConvFrac_ITCN      ', 'GCHPchem',
                          'WetLossConvFrac_ITHN      ', 'GCHPchem',
                          'WetLossConvFrac_LIMO      ', 'GCHPchem',
                          'WetLossConvFrac_LVOC      ', 'GCHPchem',
                          'WetLossConvFrac_LVOCOA    ', 'GCHPchem',
                          'WetLossConvFrac_MACR1OOH  ', 'GCHPchem',
                          'WetLossConvFrac_MAP       ', 'GCHPchem',
                          'WetLossConvFrac_MCRDH     ', 'GCHPchem',
                          'WetLossConvFrac_MCRENOL   ', 'GCHPchem',
                          'WetLossConvFrac_MCRHNB    ', 'GCHPchem',
                          'WetLossConvFrac_MCRHN     ', 'GCHPchem',
                          'WetLossConvFrac_MCRHP     ', 'GCHPchem',
                          'WetLossConvFrac_MEK       ', 'GCHPchem',
                          'WetLossConvFrac_MGLY      ', 'GCHPchem',
                          'WetLossConvFrac_MOH       ', 'GCHPchem',
                          'WetLossConvFrac_MONITA    ', 'GCHPchem',
                          'WetLossConvFrac_MONITS    ', 'GCHPchem',
                          'WetLossConvFrac_MONITU    ', 'GCHPchem',
                          'WetLossConvFrac_MPAN      ', 'GCHPchem',
                          'WetLossConvFrac_MP        ', 'GCHPchem',
                          'WetLossConvFrac_MPN       ', 'GCHPchem',
                          'WetLossConvFrac_MSA       ', 'GCHPchem',
                          'WetLossConvFrac_MTPA      ', 'GCHPchem',
                          'WetLossConvFrac_MTPO      ', 'GCHPchem',
                          'WetLossConvFrac_MVKDH     ', 'GCHPchem',
                          'WetLossConvFrac_MVK       ', 'GCHPchem',
                          'WetLossConvFrac_MVKHCB    ', 'GCHPchem',
                          'WetLossConvFrac_MVKHC     ', 'GCHPchem',
                          'WetLossConvFrac_MVKHP     ', 'GCHPchem',
                          'WetLossConvFrac_MVKN      ', 'GCHPchem',
                          'WetLossConvFrac_MVKPC     ', 'GCHPchem',
                          'WetLossConvFrac_NH3       ', 'GCHPchem',
                          'WetLossConvFrac_NH4       ', 'GCHPchem',
                          'WetLossConvFrac_NIT       ', 'GCHPchem',
                          'WetLossConvFrac_NITs      ', 'GCHPchem',
                          'WetLossConvFrac_OCPI      ', 'GCHPchem',
                          'WetLossConvFrac_OCPO      ', 'GCHPchem',
                          'WetLossConvFrac_PAN       ', 'GCHPchem',
                          'WetLossConvFrac_pFe       ', 'GCHPchem',
                          'WetLossConvFrac_PP        ', 'GCHPchem',
                          'WetLossConvFrac_PPN       ', 'GCHPchem',
                          'WetLossConvFrac_PROPNN    ', 'GCHPchem',
                          'WetLossConvFrac_PRPE      ', 'GCHPchem',
                          'WetLossConvFrac_PRPN      ', 'GCHPchem',
                          'WetLossConvFrac_PYAC      ', 'GCHPchem',
                          'WetLossConvFrac_R4N2      ', 'GCHPchem',
                          'WetLossConvFrac_R4P       ', 'GCHPchem',
                          'WetLossConvFrac_RA3P      ', 'GCHPchem',
                          'WetLossConvFrac_RB3P      ', 'GCHPchem',
                          'WetLossConvFrac_RIPA      ', 'GCHPchem',
                          'WetLossConvFrac_RIPB      ', 'GCHPchem',
                          'WetLossConvFrac_RIPC      ', 'GCHPchem',
                          'WetLossConvFrac_RIPD      ', 'GCHPchem',
                          'WetLossConvFrac_RP        ', 'GCHPchem',
                          'WetLossConvFrac_SALA      ', 'GCHPchem',
                          'WetLossConvFrac_SALAAL    ', 'GCHPchem',
                          'WetLossConvFrac_SALACL    ', 'GCHPchem',
                          'WetLossConvFrac_SALC      ', 'GCHPchem',
                          'WetLossConvFrac_SALCAL    ', 'GCHPchem',
                          'WetLossConvFrac_SALCCL    ', 'GCHPchem',
                          'WetLossConvFrac_SO2       ', 'GCHPchem',
                          'WetLossConvFrac_SO4       ', 'GCHPchem',
                          'WetLossConvFrac_SO4s      ', 'GCHPchem',
                          'WetLossConvFrac_SOAGX     ', 'GCHPchem',
                          'WetLossConvFrac_SOAIE     ', 'GCHPchem',
                          'WetLossConvFrac_SOAS      ', 'GCHPchem',
::
#==============================================================================
# %%%%% THE WetLossLS COLLECTION %%%%%
#
# Loss of soluble species in large-scale wetdep (i.e. rainout and washout)
#
# Available for all simulations that have soluble species
#==============================================================================
# Loss due to rainout and washout (per deposited species)
  WetLossLS.template:     '%y4%m2%d2_%h2%n2z.nc4',
  WetLossLS.format:       'CFIO',
  WetLossLS.frequency:    010000
  WetLossLS.duration:     010000
  WetLossLS.mode:         'time-averaged'
  WetLossLS.fields:       'WetLossLS_ACTA     ', 'GCHPchem',
                          'WetLossLS_AERI     ', 'GCHPchem',
                          'WetLossLS_ALD2     ', 'GCHPchem',
                          'WetLossLS_ATOOH    ', 'GCHPchem',
                          'WetLossLS_BCPI     ', 'GCHPchem',
                          'WetLossLS_BCPO     ', 'GCHPchem',
                          'WetLossLS_Br2      ', 'GCHPchem',
                          'WetLossLS_BrSALA   ', 'GCHPchem',
                          'WetLossLS_BrSALC   ', 'GCHPchem',
                          'WetLossLS_CH2O     ', 'GCHPchem',
                          'WetLossLS_DST1     ', 'GCHPchem',
                          'WetLossLS_DST2     ', 'GCHPchem',
                          'WetLossLS_DST3     ', 'GCHPchem',
                          'WetLossLS_DST4     ', 'GCHPchem',
                          'WetLossLS_EOH      ', 'GCHPchem',
                          'WetLossLS_ETHLN    ', 'GCHPchem',
                          'WetLossLS_ETP      ', 'GCHPchem',
                          'WetLossLS_GLYC     ', 'GCHPchem',
                          'WetLossLS_GLYX     ', 'GCHPchem',
                          'WetLossLS_H2O2     ', 'GCHPchem',
                          'WetLossLS_HAC      ', 'GCHPchem',
                          'WetLossLS_HBr      ', 'GCHPchem',
                          'WetLossLS_HC5A     ', 'GCHPchem',
                          'WetLossLS_HCl      ', 'GCHPchem',
                          'WetLossLS_HCOOH    ', 'GCHPchem',
                          'WetLossLS_HI       ', 'GCHPchem',
                          'WetLossLS_HMHP     ', 'GCHPchem',
                          'WetLossLS_HMML     ', 'GCHPchem',
                          'WetLossLS_HNO3     ', 'GCHPchem',
                          'WetLossLS_HOBr     ', 'GCHPchem',
                          'WetLossLS_HOCl     ', 'GCHPchem',
                          'WetLossLS_HOI      ', 'GCHPchem',
                          'WetLossLS_HONIT    ', 'GCHPchem',
                          'WetLossLS_HPETHNL  ', 'GCHPchem',
                          'WetLossLS_I2       ', 'GCHPchem',
                          'WetLossLS_I2O2     ', 'GCHPchem',
                          'WetLossLS_I2O3     ', 'GCHPchem',
                          'WetLossLS_I2O4     ', 'GCHPchem',
                          'WetLossLS_IBr      ', 'GCHPchem',
                          'WetLossLS_ICHE     ', 'GCHPchem',
                          'WetLossLS_ICl      ', 'GCHPchem',
                          'WetLossLS_ICN      ', 'GCHPchem',
                          'WetLossLS_ICPDH    ', 'GCHPchem',
                          'WetLossLS_IDCHP    ', 'GCHPchem',
                          'WetLossLS_IDHDP    ', 'GCHPchem',
                          'WetLossLS_IDHPE    ', 'GCHPchem',
                          'WetLossLS_IDN      ', 'GCHPchem',
                          'WetLossLS_IEPOXA   ', 'GCHPchem',
                          'WetLossLS_IEPOXB   ', 'GCHPchem',
                          'WetLossLS_IEPOXD   ', 'GCHPchem',
                          'WetLossLS_IHN1     ', 'GCHPchem',
                          'WetLossLS_IHN2     ', 'GCHPchem',
                          'WetLossLS_IHN3     ', 'GCHPchem',
                          'WetLossLS_IHN4     ', 'GCHPchem',
                          'WetLossLS_INDIOL   ', 'GCHPchem',
                          'WetLossLS_INPB     ', 'GCHPchem',
                          'WetLossLS_INPD     ', 'GCHPchem',
                          'WetLossLS_IONITA   ', 'GCHPchem',
                          'WetLossLS_IONO2    ', 'GCHPchem',
                          'WetLossLS_IONO     ', 'GCHPchem',
                          'WetLossLS_ISALA    ', 'GCHPchem',
                          'WetLossLS_ISALC    ', 'GCHPchem',
                          'WetLossLS_ITCN     ', 'GCHPchem',
                          'WetLossLS_ITHN     ', 'GCHPchem',
                          'WetLossLS_LIMO     ', 'GCHPchem',
                          'WetLossLS_LVOC     ', 'GCHPchem',
                          'WetLossLS_LVOCOA   ', 'GCHPchem',
                          'WetLossLS_MACR1OOH ', 'GCHPchem',
                          'WetLossLS_MAP      ', 'GCHPchem',
                          'WetLossLS_MCRDH    ', 'GCHPchem',
                          'WetLossLS_MCRENOL  ', 'GCHPchem',
                          'WetLossLS_MCRHNB   ', 'GCHPchem',
                          'WetLossLS_MCRHN    ', 'GCHPchem',
                          'WetLossLS_MCRHP    ', 'GCHPchem',
                          'WetLossLS_MEK      ', 'GCHPchem',
                          'WetLossLS_MGLY     ', 'GCHPchem',
                          'WetLossLS_MOH      ', 'GCHPchem',
                          'WetLossLS_MONITA   ', 'GCHPchem',
                          'WetLossLS_MONITS   ', 'GCHPchem',
                          'WetLossLS_MONITU   ', 'GCHPchem',
                          'WetLossLS_MPAN     ', 'GCHPchem',
                          'WetLossLS_MP       ', 'GCHPchem',
                          'WetLossLS_MPN      ', 'GCHPchem',
                          'WetLossLS_MSA      ', 'GCHPchem',
                          'WetLossLS_MTPA     ', 'GCHPchem',
                          'WetLossLS_MTPO     ', 'GCHPchem',
                          'WetLossLS_MVKDH    ', 'GCHPchem',
                          'WetLossLS_MVKHCB   ', 'GCHPchem',
                          'WetLossLS_MVKHC    ', 'GCHPchem',
                          'WetLossLS_MVKHP    ', 'GCHPchem',
                          'WetLossLS_MVK      ', 'GCHPchem',
                          'WetLossLS_MVKN     ', 'GCHPchem',
                          'WetLossLS_MVKPC    ', 'GCHPchem',
                          'WetLossLS_NH3      ', 'GCHPchem',
                          'WetLossLS_NH4      ', 'GCHPchem',
                          'WetLossLS_NIT      ', 'GCHPchem',
                          'WetLossLS_NITs     ', 'GCHPchem',
                          'WetLossLS_OCPI     ', 'GCHPchem',
                          'WetLossLS_OCPO     ', 'GCHPchem',
                          'WetLossLS_PAN      ', 'GCHPchem',
                          'WetLossLS_pFe      ', 'GCHPchem',
                          'WetLossLS_PP       ', 'GCHPchem',
                          'WetLossLS_PPN      ', 'GCHPchem',
                          'WetLossLS_PROPNN   ', 'GCHPchem',
                          'WetLossLS_PRPE     ', 'GCHPchem',
                          'WetLossLS_PRPN     ', 'GCHPchem',
                          'WetLossLS_PYAC     ', 'GCHPchem',
                          'WetLossLS_R4N2     ', 'GCHPchem',
                          'WetLossLS_R4P      ', 'GCHPchem',
                          'WetLossLS_RA3P     ', 'GCHPchem',
                          'WetLossLS_RB3P     ', 'GCHPchem',
                          'WetLossLS_RIPA     ', 'GCHPchem',
                          'WetLossLS_RIPB     ', 'GCHPchem',
                          'WetLossLS_RIPC     ', 'GCHPchem',
                          'WetLossLS_RIPD     ', 'GCHPchem',
                          'WetLossLS_RP       ', 'GCHPchem',
                          'WetLossLS_SALA     ', 'GCHPchem',
                          'WetLossLS_SALAAL   ', 'GCHPchem',
                          'WetLossLS_SALACL   ', 'GCHPchem',
                          'WetLossLS_SALC     ', 'GCHPchem',
                          'WetLossLS_SALCAL   ', 'GCHPchem',
                          'WetLossLS_SALCCL   ', 'GCHPchem',
                          'WetLossLS_SO2      ', 'GCHPchem',
                          'WetLossLS_SO4      ', 'GCHPchem',
                          'WetLossLS_SO4s     ', 'GCHPchem',
                          'WetLossLS_SOAGX    ', 'GCHPchem',
                          'WetLossLS_SOAIE    ', 'GCHPchem',
                          'WetLossLS_SOAS     ', 'GCHPchem',
::
