#------------------------------------------------------------------------------
#                  GEOS-Chem Global Chemical Transport Model                  !
#------------------------------------------------------------------------------
#BOP
#
# !MODULE: HEMCO_Diagn.rc
#
# !DESCRIPTION: Configuration file for netCDF diagnostic output from HEMCO.
#\\
#\\
# !REMARKS:
#  For more information about scheduling HEMCO diagnostics, see:
#  http://wiki.geos-chem.org/The_HEMCO_User%27s_Guide#Diagnostics
#
#  For a list of species by inventory, please see:
#  http://wiki.geos-chem.org/HEMCO_data_directories#Default_GEOS-Chem_emissions_configurations
#
#  All diagnostics will now be saved out in units of kg/m2/s.  If necessary,
#  you can convert hydrocarbon species to e.g. kg C/m2/s in post-processing.
#
#  The INVENTORY DIAGNOSTICS (starting with "Inv")  are only needed for
#  benchmark simulations, and can be left commented out for production runs.
#
# !REVISION HISTORY:
#  13 Feb 2018 - E. Lundgren - Initial version
#  30 Jan 2019 - R. Yantosca - Changed units to kg/m2/s
#  08 Feb 2019 - R. Yantosca - Validated that all sectors sum to the total
#EOP
#------------------------------------------------------------------------------
#BOC
# Name             Spec   ExtNr  Cat Hier Dim OutUnit       LongName

###############################################################################
#####   ACET emissions                                                    #####
###############################################################################
EmisACET_Total     ACET   -1     -1  -1   3   kg/m2/s  ACET_emission_flux_from_all_sectors
EmisACET_Anthro    ACET   0      1   -1   3   kg/m2/s  ACET_emission_flux_from_anthropogenic
EmisACET_BioBurn   ACET   111    -1  -1   2   kg/m2/s  ACET_emission_flux_from_biomass_burning
EmisACET_Biogenic  ACET   0      4   -1   2   kg/m2/s  ACET_emission_flux_from_biogenic_sources
EmisACET_Ocean     ACET   101    -1  -1   2   kg/m2/s  ACET_emission_flux_from_ocean

###############################################################################
#####  ALD2 emissions                                                     #####
###############################################################################
EmisALD2_Total     ALD2   -1     -1  -1   3   kg/m2/s  ALD2_emission_flux_from_all_sectors
EmisALD2_Anthro    ALD2   0      1   -1   3   kg/m2/s  ALD2_emission_flux_from_anthropogenic
EmisALD2_BioBurn   ALD2   111    -1  -1   2   kg/m2/s  ALD2_emission_flux_from_biomass_burning
EmisALD2_Biogenic  ALD2   0      4   -1   2   kg/m2/s  ALD2_emission_flux_from_biogenic_sources
EmisALD2_Ocean     ALD2   101    -1  -1   2   kg/m2/s  ALD2_emission_flux_from_ocean
EmisALD2_PlantDecay ALD2  0      3   -1   2   kg/m2/s  ALD2_emission_flux_from_decaying_plants
EmisALD2_Ship      ALD2   0      10  -1   2   kg/m2/s  ALD2_emission_flux_from_ships

###############################################################################
#####  ALK4 emissions                                                     #####
###############################################################################
EmisALK4_Total     ALK4   -1     -1  -1   3   kg/m2/s  ALK4_emission_flux_from_all_sectors
EmisALK4_Aircraft  ALK4   0      20  -1   3   kg/m2/s  ALK4_emission_flux_from_aircraft
EmisALK4_Anthro    ALK4   0      1   -1   3   kg/m2/s  ALK4_emission_flux_from_anthropogenic
EmisALK4_BioBurn   ALK4   111    -1  -1   2   kg/m2/s  ALK4_emission_flux_from_biomass_burning
EmisALK4_Ship      ALK4   0      10  -1   2   kg/m2/s  ALK4_emission_flux_from_ships

###############################################################################
#####  BCPI and BCPO emissions                                            #####
###############################################################################
EmisBCPI_Total     BCPI   -1     -1  -1   3   kg/m2/s  BCPI_emission_flux_from_all_sectors
EmisBCPI_Aircraft  BCPI   0      20  -1   3   kg/m2/s  BCPI_emission_flux_from_aircraft
EmisBCPI_Anthro    BCPI   0      1   -1   3   kg/m2/s  BCPI_emission_flux_from_anthropogenic
EmisBCPI_BioBurn   BCPI   111    -1  -1   2   kg/m2/s  BCPI_emission_flux_from_biomass_burning
EmisBCPI_Ship      BCPI   0      10  -1   2   kg/m2/s  BCPI_emission_flux_from_ships
EmisBCPO_Total     BCPO   -1     -1  -1   2   kg/m2/s  BCPO_emission_flux_from_all_sectors
EmisBCPO_Anthro    BCPO   0      1   -1   2   kg/m2/s  BCPO_emission_flux_from_anthropogenic
EmisBCPO_BioBurn   BCPO   111    -1  -1   2   kg/m2/s  BCPO_emission_flux_from_biomass_burning
EmisBCPO_Ship      BCPO   0      10  -1   2   kg/m2/s  BCPO_emission_flux_from_ships

###############################################################################
#####  BENZ emissions                                                     #####
###############################################################################
EmisBENZ_Total     BENZ   -1     -1  -1   3   kg/m2/s  BENZ_emission_flux_from_all_sectors
EmisBENZ_Anthro    BENZ   0      1   -1   3   kg/m2/s  BENZ_emission_flux_from_anthropogenic
EmisBENZ_BioBurn   BENZ   111    -1  -1   2   kg/m2/s  BENZ_emission_flux_from_biomass_burning
EmisBENZ_Ship      BENZ   0      10  -1   2   kg/m2/s  BENZ_emission_flux_from_ships

###############################################################################
#####  C2H2 emissions                                                    ######
###############################################################################
EmisC2H2_Total     C2H2   -1     -1  -1   3   kg/m2/s  C2H2_emission_flux_from_all_sectors
EmisC2H2_Anthro    C2H2   0      1   -1   3   kg/m2/s  C2H2_emission_flux_from_anthropogenic
EmisC2H2_Ship      C2H2   0      10  -1   2   kg/m2/s  C2H2_emission_flux_from_ships

###############################################################################
#####  C2H4 emissions                                                    ######
###############################################################################
EmisC2H4_Total     C2H4   -1     -1  -1   3   kg/m2/s  C2H4_emission_flux_from_all_sectors
EmisC2H4_Anthro    C2H4   0      1   -1   3   kg/m2/s  C2H4_emission_flux_from_anthropogenic
EmisC2H4_Biogenic  C2H4   0      4   -1   2   kg/m2/s  C2H4_emission_flux_from_biogenic_sources
EmisC2H4_Ship      C2H4   0      10  -1   2   kg/m2/s  C2H4_emission_flux_from_ships

###############################################################################
#####  C2H6 emissions                                                    ######
###############################################################################
EmisC2H6_Total     C2H6   -1     -1  -1   3   kg/m2/s  C2H6_emission_flux_from_all_sectors
EmisC2H6_Aircraft  C2H6   0      20  -1   3   kg/m2/s  C2H6_emission_flux_from_aircraft
EmisC2H6_Anthro    C2H6   0      1   -1   3   kg/m2/s  C2H6_emission_flux_from_anthropogenic
EmisC2H6_BioBurn   C2H6   111    -1  -1   2   kg/m2/s  C2H6_emission_flux_from_biomass_burning
EmisC2H6_Ship      C2H6   0      10  -1   2   kg/m2/s  C2H6_emission_flux_from_ships

###############################################################################
#####  C3H8 emissions                                                     #####
###############################################################################
EmisC3H8_Total     C3H8   -1     -1  -1   3   kg/m2/s  C3H8_emission_flux_from_all_sectors
EmisC3H8_Aircraft  C3H8   0      20  -1   3   kg/m2/s  C3H8_emission_flux_from_aircraft
EmisC3H8_Anthro    C3H8   0      1   -1   3   kg/m2/s  C3H8_emission_flux_from_anthropogenic
EmisC3H8_BioBurn   C3H8   111    -1  -1   2   kg/m2/s  C3H8_emission_flux_from_biomass_burning
EmisC3H8_Ship      C3H8   0      10  -1   2   kg/m2/s  C3H8_emission_flux_from_ships

###############################################################################
#####  CH2Br2 emissions                                                   #####
###############################################################################
EmisCH2Br2_Ocean   CH2Br2 0      1   -1   2   kg/m2/s  CH2Br2_emission_flux_from_ocean

###############################################################################
#####  CH2I2 emissions                                                   #####
###############################################################################
EmisCH2I2_Ocean    CH2I2  0     1    -1   2   kg/m2/s  CH2I2_emission_flux_from_ocean

###############################################################################
#####  CH2ICl emissions                                                   #####
###############################################################################
EmisCH2ICl_Ocean   CH2ICl 0     1    -1   2   kg/m2/s  CH2ICl_emission_flux_from_ocean

###############################################################################
#####  CH2IBr emissions                                                   #####
###############################################################################
EmisCH2IBr_Ocean   CH2IBr 0     1    -1   2   kg/m2/s  CH2IBr_emission_flux_from_ocean

###############################################################################
#####  CH2O emissions                                                     #####
###############################################################################
EmisCH2O_Total     CH2O   -1     -1  -1   3   kg/m2/s  CH2O_emission_flux_from_all_sectors
EmisCH2O_Aircraft  CH2O   0      20  -1   3   kg/m2/s  CH2O_emission_flux_from_aircraft
EmisCH2O_Anthro    CH2O   0      1   -1   3   kg/m2/s  CH2O_emission_flux_from_anthropogenic
EmisCH2O_BioBurn   CH2O   111    -1  -1   2   kg/m2/s  CH2O_emission_flux_from_biomass_burning
EmisCH2O_Ship      CH2O   0      10  -1   2   kg/m2/s  CH2O_emission_flux_from_ships

###############################################################################
#####  CH3I emissions                                                   #####
###############################################################################
EmisCH3I_Ocean     CH3I   0     1    -1   2   kg/m2/s  CH3I_emission_flux_from_ocean

###############################################################################
#####  CH4 emissions                                                      #####
###############################################################################
EmisCH4_Total      CH4    -1     -1  -1   3   kg/m2/s  CH4_emission_flux_from_all_sectors
EmisCH4_Anthro     CH4    0      1   -1   3   kg/m2/s  CH4_emission_flux_from_anthropogenic
EmisCH4_BioBurn    CH4    0      5   -1   2   kg/m2/s  CH4_emission_flux_from_biomass_burning
EmisCH4_Ship       CH4    0      10  -1   2   kg/m2/s  CH4_emission_flux_from_ships

###############################################################################
#####  CHBr3 emissions                                                    #####
###############################################################################
EmisCHBr3_Ocean    CHBr3  0      1   -1   2   kg/m2/s  CHBr3_emission_flux_from_ocean

###############################################################################
#####  CO sources                                                         #####
###############################################################################
EmisCO_Total       CO     -1     -1  -1   3   kg/m2/s  CO_emission_flux_from_all_sectors
EmisCO_Aircraft    CO     0      20  -1   3   kg/m2/s  CO_emission_flux_from_aircraft
EmisCO_Anthro      CO     0      1   -1   3   kg/m2/s  CO_emission_flux_from_anthropogenic
EmisCO_BioBurn     CO     111    -1  -1   2   kg/m2/s  CO_emission_flux_from_biomass_burning
EmisCO_Ship        CO     0      10  -1   2   kg/m2/s  CO_emission_flux_from_ships

###############################################################################
#####  CO2 emissions                                                      #####
###############################################################################
EmisCO2_Total      CO2    -1     -1  -1   3   kg/m2/s  CO2_emission_flux_from_all_sectors
EmisCO2_Anthro     CO2    0      1   -1   3   kg/m2/s  CO2_emission_flux_from_anthropogenic
EmisCO2_BioBurn    CO2    0      5   -1   2   kg/m2/s  CO2_emission_flux_from_biomass_burning
EmisCO2_Ship       CO2    0      10  -1   2   kg/m2/s  CO2_emission_flux_from_ships

###############################################################################
#####  DMS emissions                                                      #####
###############################################################################
EmisDMS_Ocean      DMS    101    -1  -1   2   kg/m2/s  DMS_emission_flux_from_ocean

###############################################################################
#####  Dust emissions                                                     #####
###############################################################################
EmisDST1_Total     DST1   -1     -1  -1   2   kg/m2/s  DST1_emission_flux_from_all_sectors
EmisDST1_Anthro    DST1   0      1   -1   2   kg/m2/s  DST1_emission_flux_from_anthropogenic
EmisDST1_Natural   DST1   0      3   -1   2   kg/m2/s  DST1_emission_flux_from_natural_sources
EmisDST2_Natural   DST2   0      3   -1   2   kg/m2/s  DST2_emission_flux_from_natural_sources
EmisDST3_Natural   DST3   0      3   -1   2   kg/m2/s  DST3_emission_flux_from_natural_sources
EmisDST4_Natural   DST4   0      3   -1   2   kg/m2/s  DST4_emission_flux_from_natural_sources

###############################################################################
#####  EOH emissions                                                      #####
###############################################################################
EmisEOH_Total      EOH    -1     -1  -1   3   kg/m2/s  EOH_emission_flux_from_all_sectors
EmisEOH_Anthro     EOH    0      1   -1   3   kg/m2/s  EOH_emission_flux_from_anthropogenic
EmisEOH_BioBurn    EOH    111    -1  -1   2   kg/m2/s  EOH_emission_flux_from_biomass_burning
EmisEOH_Biogenic   EOH    0      4   -1   2   kg/m2/s  EOH_emission_flux_from_biogenic_sources
EmisEOH_PlantDecay EOH    0      3   -1   2   kg/m2/s  EOH_emission_flux_from_decaying_plants
EmisEOH_Ship       EOH    0      10  -1   2   kg/m2/s  EOH_emission_flux_from_ships

###############################################################################
#####  ETNO3 emissions                                                    #####
###############################################################################
EmisETNO3_Ocean    ETNO3  101    -1  -1   2   kg/m2/s  ETNO3_emission_flux_from_ocean

###############################################################################
#####  HAC emissions                                                     #####
###############################################################################
EmisHAC_Total      HAC    -1     -1  -1   3   kg/m2/s  HAC_emission_flux_from_all_sectors
EmisHAC_Anthro     HAC    0      1   -1   3   kg/m2/s  HAC_emission_flux_from_anthropogenic

###############################################################################
#####  GLYC emissions                                                     #####
###############################################################################
EmisGLYC_Total     GLYC   -1     -1  -1   3   kg/m2/s  GLYC_emission_flux_from_all_sectors
EmisGLYC_Anthro    GLYC   0      1   -1   3   kg/m2/s  GLYC_emission_flux_from_anthropogenic

###############################################################################
#####  GLYX emissions                                                     #####
###############################################################################
EmisGLYX_Total     GLYX   -1     -1  -1   3   kg/m2/s  GLYX_emission_flux_from_all_sectors
EmisGLYX_Anthro    GLYX   0      1   -1   3   kg/m2/s  GLYX_emission_flux_from_anthropogenic

###############################################################################
#####  HCOOH sources                                                      #####
###############################################################################
EmisHCOOH_Total    HCOOH  -1     -1  -1   3   kg/m2/s  HCOOH_emission_flux_from_all_sectors
EmisHCOOH_Anthro   HCOOH  0      1   -1   3   kg/m2/s  HCOOH_emission_flux_from_anthropogenic
EmisHCOOH_Ship     HCOOH  0      10  -1   2   kg/m2/s  HCOOH_emission_flux_from_ship

###############################################################################
#####  HNO2 emissions                                                     #####
###############################################################################
EmisHNO2_Anthro    HNO2   0      1   -1   3   kg/m2/s  HNO2_emission_flux_from_anthropogenic

###############################################################################
#####  HNO3 emissions                                                     #####
###############################################################################
EmisHNO3_Ship      HNO3   102    -1  -1   2   kg/m2/s  HNO3_emission_flux_from_ships

###############################################################################
#####  ISOP emissions                                                     #####
###############################################################################
EmisISOP_Total     ISOP   -1     -1  -1   3   kg/m2/s  ISOP_emission_flux_from_all_sectors
EmisISOP_Anthro    ISOP   0      1   -1   3   kg/m2/s  ISOP_emission_flux_from_anthropogenic
EmisISOP_Biogenic  ISOP   0      4   -1   2   kg/m2/s  ISOP_emission_flux_from_biogenic_sources

###############################################################################
#####  LIMO emissions                                                     #####
###############################################################################
EmisLIMO_Biogenic  LIMO   0      4   -1   2   kg/m2/s  LIMO_emission_flux_from_biogenic_sources

###############################################################################
#####  MACR emissions                                                     #####
###############################################################################
EmisMACR_Total     MACR   -1     -1  -1   3   kg/m2/s  MACR_emission_flux_from_all_sectors
EmisMACR_Aircraft  MACR   0      20  -1   3   kg/m2/s  MACR_emission_flux_from_anthropogenic
EmisMACR_Anthro    MACR   0      1   -1   3   kg/m2/s  MACR_emission_flux_from_anthropogenic

###############################################################################
#####  MEK emissions                                                      #####
###############################################################################
EmisMEK_Total      MEK    -1     -1  -1   3   kg/m2/s  MEK_emission_flux_from_all_sectors
EmisMEK_Anthro     MEK    0      1   -1   3   kg/m2/s  MEK_emission_flux_from_anthropogenic
EmisMEK_BioBurn    MEK    111    -1  -1   2   kg/m2/s  MEK_emission_flux_from_biomass_burning
EmisMEK_Ship       MEK    0      10  -1   2   kg/m2/s  MEK_emission_flux_from_ships

###############################################################################
#####  MENO3 emissions                                                    #####
###############################################################################
EmisMENO3_Ocean    MENO3  101    -1  -1   2   kg/m2/s  MENO3_emission_flux_from_ocean

###############################################################################
#####  MGLY emissions                                                     #####
###############################################################################
EmisMGLY_Total     MGLY   -1     -1  -1   3   kg/m2/s  MGLY_emission_flux_from_all_sectors
EmisMGLY_Anthro    MGLY   0      1   -1   3   kg/m2/s  MGLY_emission_flux_from_anthropogenic

###############################################################################
#####  MOH emissions                                                      #####
###############################################################################
EmisMOH_Total      MOH    -1     -1  -1   3   kg/m2/s  MOH_emission_flux_from_all_sectors
EmisMOH_Anthro     MOH    0      1   -1   3   kg/m2/s  MOH_emission_flux_from_anthropogenic
EmisMOH_BioBurn    MOH    111    -1  -1   2   kg/m2/s  MOH_emission_flux_from_biomass_burning
EmisMOH_Biogenic   MOH    108    -1  -1   2   kg/m2/s  MOH_emission_flux_from_biogenic_sources
EmisMOH_Ocean      MOH    101    -1  -1   2   kg/m2/s  MOH_emission_flux_from_ocean
EmisMOH_Ship       MOH    0      10  -1   2   kg/m2/s  MOH_emission_flux_from_ships

###############################################################################
#####  MTPA emissions                                                     #####
###############################################################################
EmisMTPA_Total     MTPA   -1     -1  -1   3   kg/m2/s  MTPA_emission_flux_from_all_sectors
EmisMTPA_BioBurn   MTPA   111    -1  -1   2   kg/m2/s  MTPA_emission_flux_from_biomass_burning
EmisMTPA_Biogenic  MTPA   0      4   -1   2   kg/m2/s  MTPA_emission_flux_from_biogenic_sources

###############################################################################
#####  MTPO emissions                                                     #####
###############################################################################
EmisMTPO_Biogenic  MTPO   0      4   -1   2   kg/m2/s  MTPO_emission_flux_from_biogenic_sources

###############################################################################
#####  MVK emissions                                                      #####
###############################################################################
EmisMVK_Anthro     MVK    0      1   -1   3   kg/m2/s  MVK_emission_flux_from_anthropogenic

###############################################################################
#####  NAP emissions                                                      #####
###############################################################################
EmisNAP_Total      NAP    -1     -1  -1   3   kg/m2/s  NAP_emission_flux_from_all_sectors
EmisNAP_Anthro     NAP    0      1   -1   3   kg/m2/s  NAP_emission_flux_from_anthropogenic
EmisNAP_BioBurn    NAP    111    -1  -1   2   kg/m2/s  NAP_emission_flux_from_biomass_burning

###############################################################################
#####  NH3 emissions                                                      #####
###############################################################################
EmisNH3_Total      NH3    -1     -1  -1   3   kg/m2/s  NH3_emission_flux_from_all_sectors
EmisNH3_Anthro     NH3    0      1   -1   3   kg/m2/s  NH3_emission_flux_from_anthropogenic
EmisNH3_BioBurn    NH3    111    -1  -1   2   kg/m2/s  NH3_emission_flux_from_biomass_burning
EmisNH3_Natural    NH3    0      3   -1   2   kg/m2/s  NH3_emission_flux_from_natural_sources
EmisNH3_Seabirds   NH3    0      30  -1   2   kg/m2/s  NH3_emission_flux_from_seabirds
EmisNH3_Ship       NH3    0      10  -1   2   kg/m2/s  NH3_emission_flux_from_ships

###############################################################################
#####  NO emissions                                                       #####
###############################################################################
EmisNO_Total       NO     -1     -1  -1   3   kg/m2/s  NO_emission_flux_from_all_sectors
EmisNO_Aircraft    NO     0      20  -1   3   kg/m2/s  NO_emission_flux_from_aircraft
EmisNO_Anthro      NO     0      1   -1   3   kg/m2/s  NO_emission_flux_from_anthropogenic
EmisNO_BioBurn     NO     111    -1  -1   2   kg/m2/s  NO_emission_flux_from_biomass_burning
EmisNO_Lightning   NO     103    -1  -1   3   kg/m2/s  NO_emission_flux_from_lightning
EmisNO_Ship        NO     102    -1  -1   2   kg/m2/s  NO_emission_flux_from_ships
EmisNO_Soil        NO     0      3   -1   2   kg/m2/s  NO_emission_flux_from_soil

###############################################################################
#####  NO2 emissions                                                      #####
###############################################################################
EmisNO2_Anthro     NO2    0      1   -1   3   kg/m2/s  NO2_emission_flux_from_anthropogenic
EmisNO2_Ship       NO2    102    -1  -1   2   kg/m2/s  NO2_emission_flux_from_ships

###############################################################################
#####  O3 emissions                                                       #####
###############################################################################
EmisO3_Ship        O3     102    -1  -1   2   kg/m2/s  O3_emission_flux_from_ships

###############################################################################
#####  OCPI and OCPO emissions                                            #####
###############################################################################
EmisOCPI_Total     OCPI   -1     -1  -1   3   kg/m2/s  OCPI_emission_flux_from_all_sectors
EmisOCPI_Aircraft  OCPI   0      20  -1   3   kg/m2/s  OCPI_emission_flux_from_aircraft
EmisOCPI_Anthro    OCPI   0      1   -1   3   kg/m2/s  OCPI_emission_flux_from_anthropogenic
EmisOCPI_BioBurn   OCPI   111    -1  -1   2   kg/m2/s  OCPI_emission_flux_from_biomass_burning
EmisOCPI_Ship      OCPI   0      10  -1   2   kg/m2/s  OCPI_emission_flux_from_ships
EmisOCPO_Total     OCPO   -1     -1  -1   2   kg/m2/s  OCPO_emission_flux_from_all_sectors
EmisOCPO_Anthro    OCPO   0      1   -1   2   kg/m2/s  OCPO_emission_flux_from_anthropogenic
EmisOCPO_BioBurn   OCPO   111    -1  -1   2   kg/m2/s  OCPO_emission_flux_from_biomass_burning
EmisOCPO_Ship      OCPO   0      10  -1   2   kg/m2/s  OCPO_emission_flux_from_ships

###############################################################################
#####  pFe emissions                                                      #####
###############################################################################
EmispFe_Total      pFe    -1     -1  -1   3   kg/m2/s  pFe_emission_flux_from_all_sectors
EmispFe_Anthro     pFe    0      1   -1   3   kg/m2/s  pFe_emission_flux_from_anthropogenic
EmispFe_Ship       pFe    0      10  -1   2   kg/m2/s  pFe_emission_flux_from_ships

###############################################################################
#####  POG1 and POG2 emissions                                            #####
###############################################################################
EmisPOG1_Total     POG1   -1     -1  -1   3   kg/m2/s  POG1_emission_flux_from_all_sectors
EmisPOG1_Anthro    POG1   0      1   -1   3   kg/m2/s  POG1_emission_flux_from_anthropogenic
EmisPOG1_BioBurn   POG1   111    -1  -1   2   kg/m2/s  POG1_emission_flux_from_GFED_inventory
EmisPOG2_Total     POG2   -1     -1  -1   3   kg/m2/s  POG2_emission_flux_from_all_sectors
EmisPOG2_Anthro    POG2   0      1   -1   3   kg/m2/s  POG2_emission_flux_from_anthropogenic
EmisPOG2_BioBurn   POG2   111    -1  -1   2   kg/m2/s  POG2_emission_flux_from_GFED_inventory

###############################################################################
#####  PRPE emissions                                                     #####
###############################################################################
EmisPRPE_Total     PRPE   -1     -1  -1   3   kg/m2/s  PRPE_emission_flux_from_all_sectors
EmisPRPE_Aircraft  PRPE   0      20  -1   3   kg/m2/s  PRPE_emission_flux_from_aircraft
EmisPRPE_Anthro    PRPE   0      1   -1   3   kg/m2/s  PRPE_emission_flux_from_anthropogenic
EmisPRPE_BioBurn   PRPE   111    -1  -1   2   kg/m2/s  PRPE_emission_flux_from_biomass_burning
EmisPRPE_Biogenic  PRPE   0      4   -1   2   kg/m2/s  PRPE_emission_flux_from_biogenic_sources
EmisPRPE_Ship      PRPE   0      10  -1   2   kg/m2/s  PRPE_emission_flux_from_ships

###############################################################################
#####  RCHO emissions                                                     #####
###############################################################################
EmisRCHO_Total     RCHO   -1     -1  -1   3   kg/m2/s  RCHO_emission_flux_from_all_sectors
EmisRCHO_Aircraft  RCHO   0      20  -1   3   kg/m2/s  RCHO_emission_flux_from_aircraft
EmisRCHO_Anthro    RCHO   0      1   -1   3   kg/m2/s  RCHO_emission_flux_from_anthropogenic

###############################################################################
#####  SESQ emissions                                                     #####
###############################################################################
EmisSESQ_Biogenic  SESQ   0      4   -1   2   kg/m2/s  SESQ_emission_flux_from_biogenic_sources

###############################################################################
#####  Sea salt emissions                                                 #####
###############################################################################
EmisBr2_Natural    Br2    0      3   -1   2   kg/m2/s  Br2_emission_flux_from_natural_sources
EmisBrSALA_Natural BrSALA 0      3   -1   2   kg/m2/s  BrSALA_emission_flux_from_natural_sources
EmisBrSALC_Natural BrSALC 0      3   -1   2   kg/m2/s  BrSALC_emission_flux_from_natural_sources
EmisSALA_Natural   SALA   0      3   -1   2   kg/m2/s  SALA_emission_flux_from_natural_sources
EmisSALC_Natural   SALC   0      3   -1   2   kg/m2/s  SALC_emission_flux_from_natural_sources

###############################################################################
#####  SO2 emissions                                                      #####
###############################################################################
EmisSO2_Total      SO2    -1     -1  -1   3   kg/m2/s  SO2_emission_flux_from_all_sectors
EmisSO2_Aircraft   SO2    0      20  -1   3   kg/m2/s  SO2_emission_flux_from_aircraft
EmisSO2_Anthro     SO2    0      1   -1   3   kg/m2/s  SO2_emission_flux_from_anthropogenic
EmisSO2_BioBurn    SO2    111    -1  -1   2   kg/m2/s  SO2_emission_flux_from_biomass_burning
EmisSO2_VolcErupt  SO2    117    51  -1   3   kg/m2/s  SO2_emission_flux_from_eruptive_volcano
EmisSO2_VolcDegas  SO2    117    52  -1   3   kg/m2/s  SO2_emission_flux_from_noneruptive_volcano
EmisSO2_Ship       SO2    0      10  -1   2   kg/m2/s  SO2_emission_flux_from_ships

###############################################################################
#####  SO4 emissions                                                      #####
###############################################################################
EmisSO4_Total      SO4    -1     -1  -1   3   kg/m2/s  SO4_emission_flux_from_all_sectors
EmisSO4_Aircraft   SO4    0      20  -1   3   kg/m2/s  SO4_emission_flux_from_aircraft
EmisSO4_Anthro     SO4    0      1   -1   3   kg/m2/s  SO4_emission_flux_from_anthropogenic
EmisSO4_Ship       SO4    0      10  -1   2   kg/m2/s  SO4_emission_flux_from_ship

###############################################################################
#####  SOAP sources                                                       #####
###############################################################################
EmisSOAP_Total     SOAP   -1     -1  -1   3   kg/m2/s  SOAP_emission_flux_from_all_sectors
EmisSOAP_Aircraft  SOAP   0      20  -1   3   kg/m2/s  SOAP_emission_flux_from_aircraft
EmisSOAP_Anthro    SOAP   0      1   -1   3   kg/m2/s  SOAP_emission_flux_from_anthropogenic
EmisSOAP_Biogenic  SOAP   0      4   -1   2   kg/m2/s  SOAP_emission_flux_from_biogenic_sources
EmisSOAP_BioBurn   SOAP   111    -1  -1   2   kg/m2/s  SOAP_emission_flux_from_biomass_burning
EmisSOAP_Ship      SOAP   0      10  -1   2   kg/m2/s  SOAP_emission_flux_from_ships

###############################################################################
#####  SOAS sources                                                       #####
###############################################################################
EmisSOAS_Biogenic  SOAS   0      4   -1   2   kg/m2/s  SOAS_emission_flux_from_biogenic_sources

###############################################################################
#####  TOLU emissions                                                     #####
###############################################################################
EmisTOLU_Total     TOLU   -1     -1  -1   3   kg/m2/s  TOLU_emission_flux_from_all_sectors
EmisTOLU_Anthro    TOLU   0      1   -1   3   kg/m2/s  TOLU_emission_flux_from_anthropogenic
EmisTOLU_BioBurn   TOLU   111    -1  -1   2   kg/m2/s  TOLU_emission_flux_from_biomass_burning
EmisTOLU_Ship      TOLU   0      10  -1   2   kg/m2/s  TOLU_emission_flux_from_ships

###############################################################################
#####  XYLE emissions                                                     #####
###############################################################################
EmisXYLE_Total     XYLE   -1     -1  -1   3   kg/m2/s  XYLE_emission_flux_from_all_sectors
EmisXYLE_Anthro    XYLE   0      1   -1   3   kg/m2/s  XYLE_emission_flux_from_anthropogenic
EmisXYLE_BioBurn   XYLE   111    -1  -1   2   kg/m2/s  XYLE_emission_flux_from_biomass_burning
EmisXYLE_Ship      XYLE   0      10  -1   2   kg/m2/s  XYLE_emission_flux_from_ships

###############################################################################
#####  Additional diagnostics saved out via HEMCO extensions              #####
###############################################################################

#=============================
# LIGHTNOX extension
#=============================
LightningFlashRate_Total       -1 103 -1 -1 2 flashes/min/km2 Total_lightning_flash_rate
LightningFlashRate_IntraCloud  -1 103 -1 -1 2 flashes/min/km2 Intra-cloud_lightning_flash_rate
LightningFlashRate_CloudGround -1 103 -1 -1 2 flashes/min/km2 Cloud-ground_lightning_flash_rate
ConvectiveCloudTopHeight       -1 103 -1 -1 2 level           Convective_cloud_top_height

#EOC
