{ Standard.eqn

-------------------------------------------------------------------------------
DESCRIPTION
-------------------------------------------------------------------------------

GEOS-Chem KPP standard chemistry file containing species and equations for the
NOx-Ox-HC-Aer-Br-Cl-I mechanism with the Universal tropospheric-stratospheric
Chemistry eXtension (UCX). This mechanism applied from the surface to the
stratopause.

===============================================================================
FILE HISTORY
===============================================================================

v11-01g (Sep 2016)
----------------------

 (1) Initial version for FlexChem (MSL,MJE,MPS,EWL)

v11-02a (Mar 2017)
----------------------

 (1) Update rate constants based on JPL 15-10 (MJE,BHH)
     - See wiki.geos-chem.org/Updates_in_JPL_Publication_15-10
 (2) Fix ALK4 lumping issue in R4O2 + NO reaction (BHH)
 (3) PAN chemistry updates (EVF)
     - Added several new NMVOCs. The extended mechanism includes ethanol,
       benzene, toluene and ethylbenzene (lumped), xylenes and trimethyl
       benzenes (lumped), and monoterpenes (lumped).
     - Treatment of monoterpene oxidation is adopted from theRACM2 chemical
       mechanism (Goliff et al., 2013), lumping terpenes with one double bond
       (alpha-pinene, beta-pinene, sabinene, delta-3-carene) into one proxy.

v11-02c (Jul 2017)
----------------------

 (1) Add isoprene SOA updates from Marais2016 (EAM,MPS)
 (2) Update isoprene and monoterpene chemistry (KRT,JAF,CCM,EAM,KHB,RHS)
      - Based on Travis2016, Fisher2016, ChanMiller2017, Marais2016
      - Add Bates2014 epoxide scheme
      - Update isoprene nitrate chemistry following Lee2014
      - Add Muller2014 fast photolysis of carbonyl nitrates
      - Add HNO2 chemistry from Lee2014
      - Updated product yields and rx rate for RIO2+RIO2 (Xie2013)
 (3) Add fixes for carbon-creating reactions (SAS,BHH,MJE)

v11-02d (Sep 2017)
----------------------

 (1) Add halogen chemistry from Sherwen2016b/Sherwen2017 (TS,JAS,SDE,LZHU)
 (2) Add HOBr + S(IV) from Chen2017 (QJC)

===============================================================================
DEVELOPERS (alphabetical order; add your name!)
===============================================================================

BHH : Barron Henderson;        barronh@gmail.com
CCM : Christopher Chan Miller; cmiller@fas.harvard.edu
DBM : Dylan Millet             dbm@umn.edu
EAM : Eloise Marais;           e.a.marais@bham.ac.uk
ECB : Ellie Browne             eleanor.browne@colorado.edu
EVF : Emily Fischer;           evf@rams.colostate.edu
EWL : Lizzie Lundgren;         elundgren@seas.harvard.edu
FP  : Fabien Paulot;           fabien.paulot@noaa.gov
HOTP: Havala Pye;              pye.havala@epa.gov
JAF : Jenny Fisher;            jennyf@uow.edu.au
JAS : Johan Schmidt;           johanalbrechtschmidt@gmail.com
JMAO: Jingqiu Mao;             jmao2@alaska.edu
JPP : Justin Parrella;         justin.parrella@gmail.com
KHB : Kelvin Bates;            kelvin@caltech.edu
KRT : Katie Travis;            ktravis@fas.harvard.edu
LZHU: Lei Zhu;                 leizhu@fas.harvard.edu
MJE : Mat Evans;               mat.evans@york.ac.uk
MPS : Melissa Sulprizio;       mpayer@seas.harvard.edu
MSL : Mike Long;               mlong@seas.harvard.edu
QJC : Qianjie Chen;            chenqjie@uw.edu
RHS : Rebecca Schwantes;       rschwant@caltech.edu
SAS : Sarah Safieddine;        sarahsaf@mit.edu
SDE : Sebastian Eastham;       seastham@seas.harvard.edu
TMS : Tomas Sherwen;           tomas.sherwen@york.ac.uk

===============================================================================
REFERENCES (alphabetical order)
===============================================================================
* Atkinson2003: Atkinson and Arey, Chem. Rev., doi:10.1021/cr0206420, 2003.
* Bates2014:    Bates et al., J. Phys. Chem A, 118, doi:10.1021/jp4107958, 2014.
* Browne2011:   Browne et al., Atmos. Chem. Phys., doi:10.5194/acp-11-4209-2011, 2011.
* Browne2014:   Browne et al., Atmos. Chem. Phys., doi:10.5194/acp-14-1225-2014, 2014.
* Chen2017:     Chen et al., Geophys. Res. Lett., doi:10.1002/2017GL073812, 2017.
* Crounse2012:  Crounse et al., J. Phys. Chem. A, doi:10.1021/jp211560u, 2012.
* Eastham2014:  Eastham et al., Atmos. Env., doi:10.1016/j.atmosenv.2014.02.001, 2014.
* Fischer2014:  Fischer et al., Atmos. Chem. Phys., doi:10.5194/acp-14-2679-2014, 2014.
* Fisher2016:   Fisher et al., Atmos. Chem. Phys., doi:10.5194/acp-16-5969-2016, 2016.
* Fry2014:      Fry et al. Environ. Sci. Technol., doi:10.1021/es502204x, 2014.
* Gill2002:     Gill and Hites, J. Phys. Chem. A, doi:10.1021/jp013532, 2002.
* Goliff2013:   Goliff et al., Atmos. Environ., doi:10.1016/j.atmosenv.2012.11.038, 2013.
* Jacobs2014:   Jacobs et al., Atmos. Chem. Phys., doi:10.5194/acp-14-8933-2014, 2014.
* Jenkin2015:   Jenkin et al., Atmos. Chem. Phys., doi:10.5194/acp-15-11433-2015, 2015.
* JPL 10-6:     JPL Publication 10-6, https://jpldataeval.jpl.nasa.gov/previous_evaluations.html, 2011.
* JPL 15-10:    JPL Publication 15-10, https://jpldataeval.jpl.nasa.gov, 2015.
* Lee2014:      Lee et al., J. Phys. Chem. A, doi:10.1021/jp4107603, 2014.
* Marais2016:   Marais et al., Atmos. Chem. Phys, doi:10.5194/acp-16-1603-2016, 2016.
* Miller2017:   Miller et al., Atmos. Chem. Phys. Discuss., doi:10.5194/acp-2016-1042, 2017.
* Millet2015:   Millet et al., Atmos. Chem. Phys., doi:10.5194/acp-15-6283-2015, 2015.
* Muller2014:   Muller et al., Atmos. Chem. Phys., doi:10.5194/acp-14-2497-2014, 2014.
* Parrella2012: Parrella et al. Atmos. Chem. Phys, doi:10.5194/acp-12-6723-2012, 2012.
* Paulot2009:   Paulot et al., Atmos. Chem. Phys., doi:10.5194/acp-9-1479-2009, 2009a and
                Paulot et al., Science, doi:10.1126/science.1172910, 2009b.
* Peeters2010:  Peeters and Muller, Phys. Chem. Chem. Phys., doi:10.1039/C0CP00811G, 2010.
* Peeters2014:  Peeters et al., J. Phys. Chem. A, doi:10.1021/jp5033146, 2014.
* Pye2010:      Pye et al., Atmos. Chem. Phys., doi:10.5194/acp-10-11261-2010, 2010.
* Roberts1992:  Roberts and Bertman, Int. J. Chem. Kinet., doi:10.1002/kin.550240307, 1992.
* Sherwen2016b: Sherwen et al., Atmos. Chem. Phys., doi:10.5194/acp-16-12239-2016, 2016b.
* Sherwen2017:  Sherwen et al., Faraday Discuss., doi:10.1039/C7FD00026J, 2017.
* StClair2016:  St. Clair et al., J. Phys. Chem. A, doi:10.1021/acs.jpca.5b065322016, 2016.
* Travis2016:   Travis et al., Atmos. Chem. Phys., doi:10.5194/acp-16-13561-2016, 2016.
* Wolfe2012:    Wolfe et al., Phys. Chem. Chem. Phys., doi: 10.1039/C2CP40388A, 2012.
* Xie2013:      Xie et al., Atmos. Chem. Phys., doi:10.5194/acp-13-8439-2013, 2013.

===============================================================================
NOTES
===============================================================================

Comment format is
 Species   - Molecular formula; full name
 Equations - Date modified; Reference; Developer initials
}

#include atoms

#DEFVAR

A3O2       = IGNORE; {CH3CH2CH2OO; Primary RO2 from C3H8}
ACET       = IGNORE; {CH3C(O)CH3; Acetone}
ACTA       = IGNORE; {CH3C(O)OH; Acetic acid}
AERI       = IGNORE; {I; Dissolved iodine}
ALD2       = IGNORE; {CH3CHO; Acetaldehyde}
ALK4       = IGNORE; {>= C4 alkanes}
ATO2       = IGNORE; {CH3C(O)CH2O2; RO2 from acetone}
ATOOH      = IGNORE; {CH3C(O)CH2OOH; ATO2 peroxide}
B3O2       = IGNORE; {CH3CH(OO)CH3; Secondary RO2 from C3H8}
BENZ       = IGNORE; {C6H6; Benzene}
Br         = IGNORE; {Br; Atomic bromine}
Br2        = IGNORE; {Br2; Molecular bromine}
BrCl       = IGNORE; {BrCl; Bromine chloride}
BrO        = IGNORE; {BrO; Bromine monoxide}
BRO2       = IGNORE; {C6H5O2 ; Peroxy radical from BENZ oxidation}
BrNO2      = IGNORE; {BrNO2; Nitryl bromide}
BrNO3      = IGNORE; {BrNO3; Bromine nitrate}
BrSALA     = IGNORE; {Br; Fine sea salt bromine}
BrSALC     = IGNORE; {Br; Course sea salt bromine}
C2H4       = IGNORE; {C2H4; Ethylene}
C2H6       = IGNORE; {C2H6; Ethane}
C3H8       = IGNORE; {C3H8; Propane}
CCl4       = IGNORE; {CCl4; Carbon tetrachloride}
CFC11      = IGNORE; {CCl3F ; CFC-11, R-11, Freon 11}
CFC12      = IGNORE; {CCl2F2; CFC-12, R-12, Freon 12}
CFC113     = IGNORE; {C2Cl3F3; CFC-113, Freon 113}
CFC114     = IGNORE; {C2Cl2F4; CFC-114, Freon 114}
CFC115     = IGNORE; {C2ClF5; CFC-115, Freon 115}
CH2Br2     = IGNORE; {CH3Br2; Dibromomethane}
CH2Cl2     = IGNORE; {CH2Cl2; Dichloromethane}
CH2I2      = IGNORE; {CH2I2; Diiodomethane}
CH2ICl     = IGNORE; {CH2ICl; Chloroiodomethane}
CH2IBr     = IGNORE; {CH2IBr; Bromoiodomethane}
CH2O       = IGNORE; {CH2O; Formaldehyde}
CH2OO      = IGNORE; {CH2OO; Criegee intermediate}
CH3Br      = IGNORE; {CH3Br; Methyl bromide}
CH3CHOO    = IGNORE; {CH3CHOO; Criegee intermediate}
CH3CCl3    = IGNORE; {CH3CCl3; Methyl chloroform}
CH3Cl      = IGNORE; {CH3Cl; Chloromethane}
CH3I       = IGNORE; {CH3I; Methyl iodide}
CH4        = IGNORE; {CH4; Methane}
CHBr3      = IGNORE; {CHBr3; Tribromethane}
CHCl3      = IGNORE; {CHCl3; Chloroform}
Cl         = IGNORE; {Cl; Atomic chlorine}
Cl2        = IGNORE; {Cl2; Molecular chlorine}
Cl2O2      = IGNORE; {Cl2O2; Dichlorine dioxide}
ClNO2      = IGNORE; {ClNO2; Nitryl chloride}
ClNO3      = IGNORE; {ClONO2; Chlorine nitrate}
ClO        = IGNORE; {ClO; Chlorine monoxide}
ClOO       = IGNORE; {ClOO; Chlorine dioxide}
CO         = IGNORE; {CO; Carbon monoxide}
CO2        = IGNORE; {CO2; Carbon dioxide}
DHDN       = IGNORE; {C5H10O8N2; C5 dihydroxydinitrate}
DHDC       = IGNORE; {C5H8O6; Dihydroxyperoxide dicarbonyl}
DHMOB      = IGNORE; {HOCH2C(CH3)(OH)C(=O)CHO; See Paulot et al., ACP, 2009}
DHPCARP    = IGNORE; {C5H9O7; Dihydroxy a-formyl peroxy radical}
DIBOO      = IGNORE; {Dibble peroxy radical}
DMS        = IGNORE; {(CH3)2S; Dimethylsulfide}
EOH        = IGNORE; {C2H5OH; Ethanol}
ETHLN      = IGNORE; {CHOCH2ONO2; Ethanal nitrate}
ETO2       = IGNORE; {CH3CH2OO; Ethylperoxy radical}
ETP        = IGNORE; {CH3CH2OOH; Ethylhydroperoxide}
GAOO       = IGNORE; {Criegee intermediate}
GLYC       = IGNORE; {HOCH2CHO; Glycoaldehyde}
GLYX       = IGNORE; {CHOCHO; Glyoxal}
H          = IGNORE; {H; Atomic hydrogen}
H1211      = IGNORE; {CBrClF2; H-1211}
H1301      = IGNORE; {CBrF3; H-1301}
H2402      = IGNORE; {C2Br2F4; H-2402}
H2O        = IGNORE; {H2O; Water vapor}
H2O2       = IGNORE; {H2O2; Hydrogen peroxide}
HAC        = IGNORE; {HOCH2C(O)CH3; Hydroxyacetone}
HBr        = IGNORE; {HBr; Hypobromic acid}
HC187      = IGNORE; {Epoxide oxidation product m/z 187-189}
HC5        = IGNORE; {HOCH2CH=C(CH3)CHO; Hydroxycarbonyl with 5C}
HC5OO      = IGNORE; {Peroxy radical from HC5}
HCFC123    = IGNORE; {C2HCl2F3; HCFC-123, R-123, Freon 123}
HCFC141b   = IGNORE; {C(CH3)Cl2F; HCFC-141b, R-141b, Freon 141b}
HCFC142b   = IGNORE; {C(CH3)ClF2; HCFC-142b, R-142b, Freon 142b}
HCFC22     = IGNORE; {CHClF2 ; HCFC-22, R-22, Freon 22}
HCl        = IGNORE; {HCl; Hydrochloric acid}
HCOOH      = IGNORE; {HCOOH; Formic acid}
HI         = IGNORE; {HI; Hydrogen iodide}
HNO2       = IGNORE; {HONO; Nitrous acid}
HNO3       = IGNORE; {HNO3; Nitric acid}
HNO4       = IGNORE; {HNO4; Pernitric acid}
HO2        = IGNORE; {HO2; Hydroperoxyl radical}
HOBr       = IGNORE; {HOBr; Hypobromous acid}
HOCl       = IGNORE; {HOCl; Hypochlorous acid}
HOI        = IGNORE; {HOI; Hypoiodous acid}
HONIT      = IGNORE; {2nd gen monoterpene organic nitrate}
HPALD      = IGNORE; {C5H8O3; Hydroperoxyaldehydes}
HPC52O2    = IGNORE; {OOCC(C(C=O)O)(O[O])C}
I          = IGNORE; {I; Atmoic iodine}
I2         = IGNORE; {I2; Molecular iodine}
I2O2       = IGNORE; {I2O2; Diiodine dioxide}
I2O3       = IGNORE; {I2O3; Diiodine trioxide}
I2O4       = IGNORE; {I2O4; Diiodine tetraoxide}
IAP        = IGNORE; {HOCH2C(CH3)(OOH)CH(OH)CHO; Peroxide from IAO2}
IBr        = IGNORE; {IBr; Iodine monobromide}
ICl        = IGNORE; {ICl; Iodine monochloride}
IEPOXA     = IGNORE; {C5H10O3; trans-Beta isoprene epoxydiol}
IEPOXB     = IGNORE; {C5H10O3; cis-Beta isoprene epoxydiol}
IEPOXD     = IGNORE; {C5H10O3; Delta isoprene epoxydiol}
IEPOXOO    = IGNORE; {RO2 from IEPOX}
IMAE       = IGNORE; {C4H6O3; C4 epoxide from oxidation of NPMN}
IMAO3      = IGNORE; {CH2=C(CH3)C(O)OO; Isoprene peroxyacyl from MVK and MACR}
INDIOL     = IGNORE; {Generic aerosol phase organonitrate hydrolysis product}
INO2       = IGNORE; {O2NOCH2C(OO)(CH3)CH=CH2; RP2 from IEPOX}
INPN       = IGNORE; {O2NOCH2C(OOH)(CH3)CH=CH2; Peroxide from INO2}
INO        = IGNORE; {INO; Nitrosyl iodide}
IO         = IGNORE; {IO; Iodine monoxide}
IONO       = IGNORE; {IONO; Nitryl iodide}
IONO2      = IGNORE; {IONO2; Iodine nitrate}
IONITA     = IGNORE; {Aerosol-phase organic nitrate from isoprene precursors}
IPMN       = IGNORE; {CH2=C(CH3)C(O)OONO2; Isoprene peroxymethacryloyl nitrate}
ISALA      = IGNORE; {I; Fine sea salt iodine}
ISALC      = IGNORE; {I; Coarse sea salt iodine}
ISN1       = IGNORE; {C5H8NO4; Nighttime isoprene nitrate}
ISN1OA     = IGNORE; {C5H10O8N2; Aerosol-phase second generation hydroxynitrates formed from ISOP+NO3 pathway}
ISN1OG     = IGNORE; {C5H10O8N2; Gas-phase second generation hydroxynitrates formed from ISOP+NO3 pathway}
ISNOOA     = IGNORE; {Peroxy radical from ISN1}
ISNOOB     = IGNORE; {Peroxy radical from ISN1}
ISNOHOO    = IGNORE; {Peroxy radical from ISN1}
ISNP       = IGNORE; {HOCH2C(OOH)(CH3)CH(ONO2)CH2OH; Isoprene nitrate}
ISOP       = IGNORE; {CH2=C(CH3)CH=CH2; Isoprene}
ISOPNB     = IGNORE; {C5H9NO4; Isoprene nitrate Beta}
ISOPNBO2   = IGNORE; {Product of ISOPNB+OH}
ISOPND     = IGNORE; {C5H9NO4; Isoprene nitrate Delta}
ISOPNDO2   = IGNORE; {Product of ISOPND+OH}
KO2        = IGNORE; {RO2 from >3 ketones}
LBRO2H     = IGNORE; {Dummy spc to track oxidation of BRO2 by HO2}
LBRO2N     = IGNORE; {Dummy spc to track oxidation of BRO2 by NO}
LIMO       = IGNORE; {C10H16; Limonene}
LIMO2      = IGNORE; {RO2 from LIMO}
LISOPOH    = IGNORE; {Dummy spc to track loss of ISOP from rxn with OH}
LISOPNO3   = IGNORE; {Dummy spc to track loss of ISOP from rxn with NO3}
LTRO2H     = IGNORE; {Dummy spc to track oxidation of TRO2 by HO2}
LTRO2N     = IGNORE; {Dummy spc to track oxidation of TRO2 by NO}
LVOC       = IGNORE; {C5H14O5; Gas-phase low-volatility non-IEPOX product of ISOPOOH (RIP) oxidation}
LVOCOA     = IGNORE; {C5H14O5; Aerosol-phase low-volatility non-IEPOX product of ISOPOOH (RIP) oxidation}
LXRO2H     = IGNORE; {Dummy spc to track oxidation of XRO2 by HO2}
LXRO2N     = IGNORE; {Dummy spc to track oxidation of XRO2 by NO}
MACR       = IGNORE; {CH2=C(CH3)CHO; Methacrolein}
MACRN      = IGNORE; {HOCH2C(ONO2)(CH3)CHO; Nitrate from MACR}
MACRNO2    = IGNORE; {Product of MACRN+OH}
MACROO     = IGNORE; {Criegee intermediate}
MAN2       = IGNORE; {HOCH2C(ONO2)(CH3)CHO; RO2 from MACR+NO3}
MAOP       = IGNORE; {CH2=C(CH3)C(O)OOH; Peroxide from NMAO3}
MAOPO2     = IGNORE; {CH2OH-CHOO*CH3C(O)OOH; Peroxy radical from MAOP}
MAP        = IGNORE; {CH3C(O)OOH; Peroxyacetic acid}
MBO        = IGNORE; {CH2=CHC(CH3)2OH; 2-methyl-3-buten-2-ol}
MBOOO      = IGNORE; {Criegee intermediate}
MCO3       = IGNORE; {CH3C(O)OO; Peroxyacetyl radical}
MEK        = IGNORE; {RC(O)R; Methyl ethyl ketone}
MGLOO      = IGNORE; {Criegee intermediate}
MGLY       = IGNORE; {CH3COCHO; Methylglyoxal}
MGLYOO     = IGNORE; {Criegee intermediate}
MOBA       = IGNORE; {HOC(=O)C(CH3)=CHCHO; 5C acid from isoprene}
MOBAOO     = IGNORE; {RO2 from MOBA}
MO2        = IGNORE; {CH3O2; Methylperoxy radical}
MONITA     = IGNORE; {Aerosol-phase organic nitrate from monoterpene precursors}
MONITS     = IGNORE; {Saturated 1st gen monoterpene organic nitrate}
MONITU     = IGNORE; {Unsaturated 1st gen monoterpene organic nitrate}
MP         = IGNORE; {CH3OOH; Methylhydroperoxide}
MPN        = IGNORE; {CH3O2NO2; Methyl peroxy nitrate}
MRO2       = IGNORE; {HOCH2C(OO)(CH3)CHO; RO2 from MACR+OH}
MRP        = IGNORE; {HOCH2C(OOH)(CH3)CHO; Peroxide from MRO2}
MSA        = IGNORE; {CH4SO3; Methanesulfonic acid}
MTPA       = IGNORE; {Lumped monoterpenes: a-pinene, b-pinene, sabinene, carene}
MTPO       = IGNORE; {Other monoterpenes: Terpinene, terpinolene, myrcene, ocimene, other monoterpenes}
MVK        = IGNORE; {CH2=CHC(=O)CH3; Methyl vinyl ketone}
MVKN       = IGNORE; {HOCH2CH(ONO2)C(=O)CH3; Nitrate from MVK}
MVKOO      = IGNORE; {Criegee intermediate}
N          = IGNORE; {N; Atomic nitrogen}
N2O        = IGNORE; {N2O; Nitrous oxide}
N2O5       = IGNORE; {N2O5; Dinitrogen pentoxide}
NMAO3      = IGNORE; {CH2=C(CH3)C(O)OO; Non-isoprene peroxyacyl from MVK and MACR}
NO         = IGNORE; {NO; Nitric oxide}
NO2        = IGNORE; {NO2; Nitrogen dioxide}
NO3        = IGNORE; {NO3; Nitrate radical}
NPMN       = IGNORE; {CH2=C(CH3)C(O)OONO2; Non-isoprene peroxymethacryloyl nitrate}
O          = IGNORE; {O(3P); Ground state atomic oxygen}
O1D        = IGNORE; {O(1D); Excited atomic oxygen}
O3         = IGNORE; {O3; Ozone}
OClO       = IGNORE; {OClO; Chlorine dioxide}
OCS        = IGNORE; {COS; Carbonyl sulfide}
OH         = IGNORE; {OH; Hydroxyl radical}
OIO        = IGNORE; {OIO; Iodine dioxide}
OLND       = IGNORE; {Monoterpene-derived NO3-alkene adduct}
OLNN       = IGNORE; {Monoterpene-derived NO3 adduct}
ONIT       = IGNORE; {Organic nitrate}
PAN        = IGNORE; {CH3C(O)OONO2; Peroxyacetylnitrate}
PIO2       = IGNORE; {RO2 from MTPA}
PIP        = IGNORE; {Peroxides from MTPA}
PMNN       = IGNORE; {Product of PMNO2+NO}
PMNO2      = IGNORE; {Product of NPMN+OH}
PO2        = IGNORE; {HOCH2CH(OO)CH3; RO2 from isoprene}
PP         = IGNORE; {HOCH2CH(OOH)CH3; Peroxide from PO2}
PPN        = IGNORE; {CH3CH2C(O)OONO2; Peroxypropionylnitrate}
PRN1       = IGNORE; {O2NOCH2CH(OO)CH3; RO2 from propene + NO3}
PRPE       = IGNORE; {C3H6; >= C3 alkenes}
PRPN       = IGNORE; {O2NOCH2CH(OOH)CH3; Peroxide from PRN1}
PROPNN     = IGNORE; {CH3C(=O)CH2ONO2; Propanone nitrate}
PYAC       = IGNORE; {CH3COCOOH; Pyruvic acid}
R4N1       = IGNORE; {RO2 from R4N2}
R4N2       = IGNORE; {RO2NO; >= C4 alkylnitrates}
R4O2       = IGNORE; {RO2 from ALK4}
R4P        = IGNORE; {CH3CH2CH2CH2OOH; Peroxide from R4O2}
RA3P       = IGNORE; {CH3CH2CH2OOH; Peroxide from A3O2}
RB3P       = IGNORE; {CH3CH(OOH)CH3; Peroxide from B3O2}
RCHO       = IGNORE; {CH3CH2CHO; >= C3 aldehydes}
RCO3       = IGNORE; {CH3CH2C(O)OO; Peroxypropionyl radical}
RIO2       = IGNORE; {HOCH2C(OO)(CH3)CH=CH2; RO2 from isoprene, aka ISOPO2}
RIPA       = IGNORE; {HOCH2C(OOH)(CH3)CH=CH2; 1,2-ISOPOOH}
RIPB       = IGNORE; {HOCH2C(OOH)(CH3)CH=CH2; 4,3-ISOPOOH}
RIPD       = IGNORE; {HOCH2C(OOH)(CH3)CH=CH2; d(1,4 and 4,1)-ISOPOOH}
ROH        = IGNORE; {C3H7OH; > C2 alcohols}
RP         = IGNORE; {CH3CH2C(O)OOH; Peroxide from RCO3}
SO2        = IGNORE; {SO2; Sulfur dioxide}
SO4        = IGNORE; {SO4; Sulfate}
SO4H1      = IGNORE; {SO4; Sulfate produced by HOBr}
SO4H2      = IGNORE; {SO4; Sulfate produced by HOBr}
SOAGX      = IGNORE; {CHOCHO; Aerosol-phase glyoxal}
SOAIE      = IGNORE; {C5H10O3; Aerosol-phase IEPOX}
SOAME      = IGNORE; {C4H6O3; Aerosol-phase IMAE}
SOAMG      = IGNORE; {CH3COCHO; Aerosol-phase methylglyoxal}
TOLU       = IGNORE; {C7H8; Toluene}
TRO2       = IGNORE; {Peroxy radical from TOLU oxidation}
VRO2       = IGNORE; {HOCH2CH(OO)C(O)CH3; RO2 from MVK+OH}
VRP        = IGNORE; {HOCH2CH(OOH)C(O)CH3; Peroxide from VRO2}
XYLE       = IGNORE; {C8H10; Xylene}
XRO2       = IGNORE; {Peroxy radical from XYLE oxidation}

#DEFFIX

H2         = IGNORE; {H2; Molecular hydrogen}
MNO3       = IGNORE; {CH3ONO2; Methylnitrate}
MOH        = IGNORE; {CH3OH; Methanol}
N2         = IGNORE; {N2; Molecular nitrogen}
NH2        = IGNORE; {NH2; Ammonia radical}
NH3        = IGNORE; {NH3; Ammonia}
O2         = IGNORE; {O2; Molecular oxygen}
RCOOH      = IGNORE; {C2H5C(O)OH; > C2 organic acids}

#EQUATIONS
//
// Gas-phase reactions
//
O3 + NO = NO2 + O2 :                         GCARR(3.00E-12, 0.0E+00, -1500.0);
O3 + OH = HO2 + O2 :                         GCARR(1.70E-12, 0.0E+00, -940.0);
O3 + HO2 = OH + O2 + O2 :                    GCARR(1.00E-14, 0.0E+00, -490.0);
O3 + NO2 = O2 + NO3 :                        GCARR(1.20E-13, 0.0E+00, -2450.0);
O3 + MO2 = CH2O + HO2 + O2 :                 GCARR(2.90E-16, 0.0E+00, -1000.0);   {2014/02/03; Eastham2014; SDE}
OH + OH = H2O + O :                          GCARR(1.80E-12, 0.0E+00, 0.0);       {2014/02/03; Eastham2014; SDE}
OH + OH {+M} = H2O2 :                        GCJPLPR(6.90E-31, 1.0E+00, 0.0, 2.6E-11, 0.0, 0.0, 0.6, 0.0, 0.0);
OH + HO2 = H2O + O2 :                        GCARR(4.80E-11, 0.0E+00, 250.0);
OH + H2O2 = H2O + HO2 :                      GCARR(1.80E-12, 0.0E+00, 0.0);
HO2 + NO = OH + NO2 :                        GCARR(3.30E-12, 0.0E+00, 270.0);     {2013/02/12; JPL 10-6; BHH,JMAO,EAM}
HO2 + HO2 = H2O2 + O2 :                      GC_HO2NO3(3.00E-13, 0.0E+00, 460.0, 2.1E-33, 0.0, 920.0); {2014/02/03; Eastham2014; SDE}
OH + CO = HO2 + CO2 :                        GC_OHCO(1.50E-13, 0.0E+00, 0.0);     {2017/02/22; JPL 15-10; BHH,MJE}
OH + CH4 = MO2 + H2O :                       GCARR(2.45E-12, 0.0E+00, -1775.0);
MO2 + NO = CH2O + HO2 + NO2 :                GCARR(2.80E-12, 0.0E+00, 300.0);
MO2 + HO2 = MP + O2 :                        GCARR(4.10E-13, 0.0E+00, 750.0);
MO2 + MO2 = MOH + CH2O + O2 :                GC_TBRANCH(9.50E-14, 0.0E+00, 390.0, 2.62E1, 0.0, -1130.0);
MO2 + MO2 = 2.000CH2O + 2.000HO2 :           GC_TBRANCH(9.50E-14, 0.0E+00, 390.0, 4.E-2, 0.0, 1130.0);
MP + OH = MO2 + H2O :                        GCARR(2.66E-12, 0.0E+00, 200.0);
MP + OH = CH2O + OH + H2O :                  GCARR(1.14E-12, 0.0E+00, 200.0);
ATOOH + OH = ATO2 + H2O :                    GCARR(2.66E-12, 0.0E+00, 200.0);     {2013/03/22; Paulot2009; FP,EAM,JMAO,MJE}
ATOOH + OH = MGLY + OH + H2O :               GCARR(1.14E-12, 0.0E+00, 200.0);     {2013/03/22; Paulot2009; FP,EAM,JMAO,MJE}
CH2O + OH = CO + HO2 + H2O :                 GCARR(5.50E-12, 0.0E+00, 125.0);
NO2 + OH {+M} = HNO3 {+M} :                  GCJPLPR(1.80E-30, 3.0E+00, 0.0, 2.8E-11, 0.0, 0.0, 0.6, 0.0, 0.0);
HNO3 + OH = H2O + NO3 :                      GC_OHHNO3(2.41E-14, 0.0E+00, 460.0, 2.69E-17, 0.E0, 2199., 6.51E-34, 0.E0, 1335.0);
NO + OH {+M} = HNO2 {+M} :                   GCJPLPR(7.00E-31, 2.6E+00, 0.0, 3.60E-11, 0.1, 0.0, 0.6, 0.0, 0.0);
HNO2 + OH = H2O + NO2 :                      GCARR(1.80E-11, 0.0E+00, -390.0);
HO2 + NO2 {+M} = HNO4 {+M} :                 GCJPLPR(1.90E-31, 3.4E+00, 0.0, 4.0e-12, 0.3, 0.0, 0.6, 0.0, 0.0); {2017/02/22; JPL 15-10; BHH,MJE}
HNO4 {+M} = HO2 + NO2 :                      GCJPLPR(9.05E-05, 3.4E+00, -10900.0, 1.90E15, 0.3, -10900.0, 0.6, 0.0, 0.0); {2017/02/22; JPL 15-10; BHH,MJE}
HNO4 + OH = H2O + NO2 + O2 :                 GCARR(1.30E-12, 0.0E+00, 380.0);
HO2 + NO3 = OH + NO2 + O2 :                  GCARR(3.50E-12, 0.0E+00, 0.0);
NO + NO3 = 2.000NO2 :                        GCARR(1.50E-11, 0.0E+00, 170.0);
OH + NO3 = HO2 + NO2 :                       GCARR(2.20E-11, 0.0E+00, 0.0);
NO2 + NO3 {+M} = N2O5 {+M} :                 GCJPLPR(2.40E-30, 3.0E+00, 0.0, 1.6E-12, -0.1, 0.0, 0.6, 0.0, 0.0 ); {2017/02/22; JPL 15-10; BHH,MJE}
N2O5 {+M} = NO2 + NO3 :                      GCJPLPR(4.14E-04, 3.0E+00, -10840.0, 2.76E14, -0.1, -10840.0, 0.6, 0.0, 0.0 ); {2017/02/22; JPL 15-10; BHH,MJE}
HCOOH + OH = H2O + CO2 + HO2 :               GCARR(4.00E-13, 0.0E+00, 0.0);       {2013/03/22; Paulot2009; FP,EAM,JMAO,MJE}
MOH + OH = HO2 + CH2O :                      GCARR(2.90E-12, 0.0E+00, -345.0);
NO2 + NO3 = NO + NO2 + O2 :                  GCARR(4.50E-14, 0.0E+00, -1260.0);
NO3 + CH2O = HNO3 + HO2 + CO :               GCARR(5.80E-16, 0.0E+00, 0.0);
ALD2 + OH = 0.950MCO3 + 0.050CH2O +
 0.050CO + 0.050HO2 + H2O :                  GCARR(4.63E-12, 0.0E+00, 350.0);     {2014/02/03; Eastham2014; SDE}
ALD2 + NO3 = HNO3 + MCO3 :                   GCARR(1.40E-12, 0.0E+00, -1900.0);
MCO3 + NO2 {+M} = PAN :                      GCJPLPR(9.70E-29, 5.6E+00, 0.0, 9.3E-12, 1.5E0, 0.0, 0.6, 0.0, 0.0); {JPL Eval 17}
PAN = MCO3 + NO2 :                           GCJPLEQ(9.30E-29, 0.0E+00, 14000.0, 9.7E-29, 5.6E0, 0.0, 9.3E-12, 1.5E0, 0., 0.6, 0., 0.);
MCO3 + NO = MO2 + NO2 + CO2 :                GCARR(8.10E-12, 0.0E+00, 270.0);
C2H6 + OH = ETO2 + H2O :                     GCARR(7.66E-12, 0.0E+00, -1020.0);   {2013/02/12; JPL 10-6; BHH,JMAO,EAM}
ETO2 + NO = ALD2 + NO2 + HO2 :               GCARR(2.60E-12, 0.0E+00, 365.0);
C3H8 + OH = B3O2 :                           GC_TBRANCH(7.60E-12, 0.0E+00, -585.0, 5.87E0, 0.64E0, -816.0);
C3H8 + OH = A3O2 :                           GC_TBRANCH(7.60E-12, 0.0E+00, -585.0, 1.7E-1, -0.64E0, 816.0);
A3O2 + NO = NO2 + HO2 + RCHO :               GCARR(2.90E-12, 0.0E+00, 350.0);
PO2 + NO = NO2 + HO2 + CH2O + ALD2 :         GCARR(2.70E-12, 0.0E+00, 350.0);
ALK4 + OH = R4O2 :                           GCARR(9.10E-12, 0.0E+00, -405.0);
R4O2 + NO = NO2 + 0.320ACET + 0.190MEK +
 0.190MO2 + 0.270HO2 + 0.320ALD2 +
 0.140RCHO + 0.050A3O2 + 0.180B3O2 +
 0.320ETO2 :                                 GC_RO2NO('B', 2.70E-12, 0.0E+00, 350.0, 4.5E0, 0.0, 0.0); {2017/02/23; ALK4 lumping fix; BHH}
R4O2 + NO = R4N2 :                           GC_RO2NO('A', 2.70E-12, 0.0E+00, 350.0, 4.5E0, 0.0, 0.0);
R4N1 + NO = 2.000NO2 + 0.570RCHO +
 0.860ALD2 + 0.570CH2O :                     GCARR(2.70E-12, 0.0E+00, 350.0);     {2017/07/27; Fix C creation; SAS,BHH,MJE}
ATO2 + NO = NO2 + CH2O + MCO3 :              GCARR(2.80E-12, 0.0E+00, 300.0);     {2017/07/27; Fix C creation; SAS,BHH,MJE}
KO2 + NO = 0.930NO2 + 0.930ALD2 +
 0.930MCO3 + 0.070R4N2 :                     GCARR(2.70E-12, 0.0E+00, 350.0);
RIO2 + NO = 0.910NO2 + 0.820HO2 +
 0.820CH2O + 0.476MVK + 0.344MACR +
 0.058HC5 + 0.030DIBOO + 0.009ISOPND +
 0.081ISOPNB :                               GCARR(2.70E-12, 0.0E+00, 350.0);     {2017/07/14; Fisher2016; KRT,JAF,CCM,EAM,KHB,RHS}
RIO2 = 0.500HPALD + 0.500DHPCARP :           GCARR(4.07E+08, 0.0E+00, -7694.0);   {2017/07/14; Peeters2014; KRT,JAF,CCM,EAM,KHB,RHS}
VRO2 + NO = 0.880NO2 + 0.350HO2 +
 0.350CH2O + 0.530MCO3 + 0.530GLYC +
 0.350MGLY + 0.120MVKN :                     GCARR(2.70E-12, 0.0E+00, 350.0);     {2013/03/22; Paulot2009; FP,EAM,JMAO,MJE}
MRO2 + NO = 0.850NO2 + 0.850HO2 +
 0.122MGLY + 0.728HAC + 0.728CO +
 0.122CH2O + 0.150MACRN :                    GCARR(2.70E-12, 0.0E+00, 350.0);     {2013/03/22; Paulot2009; FP,EAM,JMAO,MJE}
MRO2 = CO + HAC + OH :                       GCARR(2.90E+07, 0.0E+00, -5297.0);   {2013/03/22; Paulot2009; FP,EAM,JMAO,MJE}
MAN2 + NO = 1.500NO2 + 0.500CH2O +
 0.500MGLY + 0.500PROPNN + 0.500CO +
 0.500OH :                                   GCARR(2.70E-12, 0.0E+00, 350.0);     {2013/03/22; Paulot2009; FP,EAM,JMAO,MJE}
B3O2 + NO = NO2 + HO2 + ACET :               GCARR(2.70E-12, 0.0E+00, 350.0);
INO2 + NO = 1.300NO2 + 0.800HO2 +
 0.700ISN1 + 0.230HC5 + 0.035MACR +
 0.070CH2O + 0.035MVK :                      GCARR(2.70E-12, 0.0E+00, 350.0);     {2013/03/22; Paulot2009; FP,EAM,JMAO,MJE}
INO2 + NO3 = 1.300NO2 + 0.800HO2 +
 0.700ISN1 + 0.230HC5 + 0.035MACR +
 0.070CH2O + 0.035MVK :                      GCARR(2.30E-12, 0.0E+00, 0.0);       {2013/03/22; Paulot2009; FP,EAM,JMAO,MJE}
ISN1 + NO3 = 0.600ISNOOA + 0.400ISNOOB +
 0.600HNO3 :                                 GCARR(3.15E-13, 0.0E+00, -448.0);    {2013/03/22; Paulot2009; FP,EAM,JMAO,MJE}
ISNOOA + NO3 = NO2 + 0.960PROPNN + CO +
 HO2 + 0.040ISN1OG :                         GCARR(4.00E-12, 0.0E+00, 0.0);       {2017/07/14; Fisher2016; KRT,JAF,CCM,EAM,KHB,RHS}
ISNOOA + NO = NO2 + 0.960PROPNN + CO +
 HO2 + 0.040ISN1OG :                         GCARR(6.70E-12, 0.0E+00, 340.0);     {2017/07/14; Fisher2016; KRT,JAF,CCM,EAM,KHB,RHS}
ISNOOA + NO2 {+M} = 0.960IPMN +
 0.040ISN1OG :                               GCJPLPR(9.00E-28, 8.9E+00, 0.0, 7.7E-12, 0.2, 0.0, 0.6, 0.0, 0.0); {2017/06/14; Marais2016; EAM}
ISNOOA + HO2 = 0.750RP + 0.250RCOOH +
 0.250O3 + 0.960NO2 + 0.040ISN1OG :          GCARR(5.20E-13, 0.0E+00, 980.0);     {2017/07/14; Fisher2016; KRT,JAF,CCM,EAM,KHB,RHS}
ISNOOB + NO3 = 0.940PROPNN + GLYX +
 2.000NO2 + 0.040ISN1OG :                    GCARR(2.30E-12, 0.0E+00, 0.0);       {2017/07/14; Fisher2016; KRT,JAF,CCM,EAM,KHB,RHS}
ISNOOB + NO = 0.900PROPNN + 0.940GLYX +
 1.880NO2 + 0.040ISN1OG :                    GCARR(2.60E-12, 0.0E+00, 380.0);     {2017/07/14; Fisher2016; KRT,JAF,CCM,EAM,KHB,RHS}
ISNOOB + HO2 = 0.960INPN + 0.040ISN1OG :     GCARR(2.06E-13, 0.0E+00, 1300.0);    {2017/07/14; Fisher2016; KRT,JAF,CCM,EAM,KHB,RHS}
ISNOOB + MO2 = 0.660PROPNN + 0.700GLYX +
 0.700NO2 + 0.750CH2O + 0.250MOH +
 0.500HO2 + 0.040ISN1OG :                    GCARR(2.00E-13, 0.0E+00, 0.0);       {2017/07/14; Fisher2016; KRT,JAF,CCM,EAM,KHB,RHS}
ISN1 + O3 = 0.300PROPNN + 0.700GLYX +
 0.700NO2 + 0.250CH2O + 0.250MOH +
 0.500HO2 + 0.500CH2O :                      GCARR(4.15E-15, 0.0E+00, -1520.0);   {2017/07/14; Fisher2016; KRT,JAF,CCM,EAM,KHB,RHS}
ISN1 + OH = 0.345ISNOOA + 0.655ISNOHOO :     GCARR(7.48E-12, 0.0E+00, 410.0);     {2013/03/22; Paulot2009; FP,EAM,JMAO,MJE}
ISNOHOO + NO = 0.894PROPNN + 0.934HO2 +
 0.919GLYX + 0.0400ISN1OG :                  GCARR(2.60E-12, 0.0E+00, 380.0);     {2017/07/14; Fisher2016; KRT,JAF,CCM,EAM,KHB,RHS}
ISNOHOO + HO2 = 0.960INPN + 0.040ISN1OG :    GCARR(2.06E-13, 0.0E+00, 1300.0);    {2017/07/14; Fisher2016; KRT,JAF,CCM,EAM,KHB,RHS}
ISNOHOO + MO2 = 0.660PROPNN + 0.700GLYX +
 1.200HO2 + 0.750CH2O + 0.250MOH +
 0.040ISN1OG :                               GCARR(2.06E-13, 0.0E+00, 0.0);       {2017/07/14; Fisher2016; KRT,JAF,CCM,EAM,KHB,RHS}
INO2 + INO2 = 0.300NO2 + 0.800HO2 +
 0.700ISN1 + 0.230HC5 + 0.035MACR +
 0.070CH2O + 0.035MVK + 0.500ISN1 +
 0.500ISOPND :                               GCARR(1.20E-12, 0.0E+00, 0.0);       {2013/03/22; Paulot2009; FP,EAM,JMAO,MJE}
PRN1 + NO = 2.000NO2 + CH2O + ALD2 :         GCARR(2.70E-12, 0.0E+00, 350.0);
ALK4 + NO3 = HNO3 + R4O2 :                   GCARR(2.80E-12, 0.0E+00, -3280.0);
R4N2 + OH = R4N1 + H2O :                     GCARR(1.60E-12, 0.0E+00, 0.0);
ACTA + OH = MO2 + CO2 + H2O :                GCARR(3.15E-14, 0.0E+00, 920.0);     {2013/02/12; JPL 10-6; BHH,JMAO,EAM}
OH + RCHO = RCO3 + H2O :                     GCARR(6.00E-12, 0.0E+00, 410.0);
RCO3 + NO2 {+M} = PPN :                      GCJPLPR(9.00E-28, 8.9E+00, 0.0, 7.7E-12, 0.2, 0.0, 0.6, 0.0, 0.0); {JPL Eval 17}
PPN = RCO3 + NO2 :                           GCJPLEQ(9.00E-29, 0.0E+00, 14000.0, 9.00E-28, 8.9E0, 0.0, 7.7E-12, 0.2, 0., 0.6, 0., 0.);
IMAO3 + NO2 {+M} = IPMN :                    GCJPLPR(9.00E-28, 8.9E+00, 0.0, 7.7E-12, 0.2, 0.0, 0.6, 0.0, 0.0); {2017/06/14; Marais2016; EAM}
NMAO3 + NO2 {+M} = NPMN :                    GCJPLPR(9.00E-28, 8.9E+00, 0.0, 7.7E-12, 0.2, 0.0, 0.6, 0.0, 0.0); {2017/06/14; Marais2016; EAM}
IPMN = IMAO3 + NO2 :                         GCJPLEQ(9.00E-29, 0.0E+00, 14000.0, 9.00E-28, 8.9E0, 0.0, 7.7E-12, 0.2, 0., 0.6, 0., 0.); {2017/06/14; Marais2016; EAM}
NPMN = NMAO3 + NO2 :                         GCJPLEQ(9.00E-29, 0.0E+00, 14000.0, 9.00E-28, 8.9E0, 0.0, 7.7E-12, 0.2, 0., 0.6, 0., 0.); {2017/06/14; Marais2016; EAM}
RCO3 + NO = NO2 + ETO2 :                     GCARR(6.70E-12, 0.0E+00, 340.0);
NMAO3 + NO = NO2 + 0.500CH2O + 0.500CO +
 CO2 + 0.500MO2 + 0.500MCO3 :                GCARR(6.70E-12, 0.0E+00, 340.0);     {2013/03/22; Paulot2009; FP,EAM,JMAO,MJE}
RCHO + NO3 = HNO3 + RCO3 :                   GCARR(6.50E-15, 0.0E+00, 0.0);
ACET + OH = ATO2 + H2O :                     1.33E-13+3.82E-11*exp(-2000.0_dp/TEMP); {JPL Eval 17, p1-62-D31; EVF}
A3O2 + MO2 = HO2 + 0.750CH2O + 0.750RCHO +
 0.250MOH + 0.250ROH :                       GCARR(5.92E-13, 0.0E+00, 0.0);
PO2 + MO2 = HO2 + 0.500ALD2 + 1.250CH2O +
 0.160HAC + 0.090RCHO + 0.250MOH +
 0.250ROH :                                  GCARR(5.92E-13, 0.0E+00, 0.0);
R4O2 + HO2 = R4P :                           GCARR(7.40E-13, 0.0E+00, 700.0);
R4N1 + HO2 = R4N2 :                          GCARR(7.40E-13, 0.0E+00, 700.0);
ATO2 + HO2 = 0.150MCO3 + 0.150OH +
 0.150CH2O + 0.850ATOOH :                    GCARR(8.60E-13, 0.0E+00, 700.0);     {2013/03/22; Paulot2009; FP,EAM,JMAO,MJE}
KO2 + HO2 = 0.150OH + 0.150ALD2 +
 0.150MCO3 + 0.850ATOOH :                    GC_RO2HO2(2.91E-13, 0.0E+00, 1300.0, 4.0, 0.0, 0.0); {2013/03/22; Paulot2009; FP,EAM,JMAO,MJE}
RIO2 + HO2 = 0.628RIPA + 0.272RIPB +
 0.037RIPD + 0.063OH + 0.063CH2O +
 0.063HO2 + 0.038MVK + 0.025MACR :           GCARR(2.06E-13, 0.0E+00, 1300.0);    {2017/07/14; StClair2016; KRT,JAF,CCM,EAM,KHB,RHS}
VRO2 + HO2 = 0.100VRP + 0.680OH +
 0.578GLYC + 0.578MCO3 + 0.187MEK +
 0.102HO2 + 0.102CH2O + 0.102MGLY +
 0.033RCHO :                                 GC_RO2HO2(2.91E-13, 0.0E+00, 1300.0, 4.0, 0.0, 0.0); {2013/03/22; Paulot2009; FP,EAM,JMAO,MJE}
MRO2 + HO2 = MRP :                           GC_RO2HO2(2.91E-13, 0.0E+00, 1300.0, 4.0, 0.0, 0.0); {2013/03/22; Paulot2009; FP,EAM,JMAO,MJE}
MAN2 + HO2 = 0.075PROPNN + 0.075CO +
 0.075HO2 + 0.075MGLY + 0.075CH2O +
 0.075NO2 + 0.150OH + 0.850MAOP + 0.85NO2 :  GC_RO2HO2(2.91E-13, 0.0E+00, 1300.0, 4.0, 0.0, 0.0); {2017/07/27; Fix C creation; SAS,BHH,MJE}
B3O2 + HO2 = RB3P :                          GC_RO2HO2(2.91E-13, 0.0E+00, 1300.0, 3.0, 0.0, 0.0); {2013/03/22; Paulot2009; FP,EAM,JMAO,MJE}
INO2 + HO2 = INPN :                          GC_RO2HO2(2.91E-13, 0.0E+00, 1300.0, 5.0, 0.0, 0.0); {2013/03/22; Paulot2009; FP,EAM,JMAO,MJE}
PRN1 + HO2 = PRPN :                          GC_RO2HO2(2.91E-13, 0.0E+00, 1300.0, 3.0, 0.0, 0.0); {2013/03/22; Paulot2009; FP,EAM,JMAO,MJE}
MEK + OH = KO2 + H2O :                       GCARR(1.30E-12, 0.0E+00, -25.0);
MO2 + ETO2 = 0.750CH2O + 0.750ALD2 + HO2 +
 0.250MOH + 0.250EOH :                       GCARR(3.00E-13, 0.0E+00, 0.0);
MEK + NO3 = HNO3 + KO2 :                     GCARR(8.00E-16, 0.0E+00, 0.0);
R4O2 + MO2 = 0.160ACET + 0.100MEK +
 0.090MO2 + 0.140HO2 + 0.160ALD2 +
 0.070RCHO + 0.030A3O2 + 0.090B3O2 +
 0.160ETO2 + 0.250MEK + 0.750CH2O +
 0.250MOH + 0.250ROH + 0.500HO2 :            GCARR(8.37E-14, 0.0E+00, 0.0);
R4N1 + MO2 = NO2 + 0.200CH2O + 0.380ALD2 +
 0.290RCHO + 0.150R4O2 + 0.250RCHO +
 0.750CH2O + 0.250MOH + 0.250ROH +
 0.500HO2 :                                  GCARR(8.37E-14, 0.0E+00, 0.0);
ATO2 + MO2 = 0.300HO2 + 0.300CH2O +
 0.300MCO3 + 0.200HAC + 0.200CH2O +
 0.500MGLY + 0.500MOH :                      GCARR(7.50E-13, 0.0E+00, 500.0);
KO2 + MO2 = 0.500ALD2 + 0.500MCO3 +
 0.250MEK + 0.750CH2O + 0.250MOH +
 0.250ROH + 0.500HO2 :                       GCARR(8.37E-14, 0.0E+00, 0.0);
RIO2 + MO2 = 1.100HO2 + 1.220CH2O +
 0.280MVK + 0.180MACR + 0.300HC5 +
 0.240MOH + 0.240ROH :                       GCARR(8.37E-14, 0.0E+00, 0.0);       {2013/03/22; Paulot2009; FP,EAM,JMAO,MJE}
RIO2 + RIO2 = 0.910HO2 + 0.750CH2O +
 0.450MVK + 0.290MACR + 0.090DIBOO +
 1.110HC5 + 0.290CO :                        GCARR(2.30E-12, 0.0E+00, 0.0);       {2017/07/14; Xie2013; KRT,JAF,CCM,EAM,KHB,RHS}
HC5OO + MO2 = 0.500HO2 + 0.330CO +
 0.090H2 + 0.180HAC + 0.130GLYC +
 0.290MGLY + 0.250MEK + 0.950CH2O +
 0.250MOH + 0.250ROH + 0.500HO2 :            GCARR(8.37E-14, 0.0E+00, 0.0);       {2013/03/22; Paulot2009; FP,EAM,JMAO,MJE}
VRO2 + MO2 = 0.140HO2 + 0.140CH2O +
 0.360MCO3 + 0.360GLYC + 0.140MGLY +
 0.250MEK + 0.750CH2O + 0.250MOH +
 0.250ROH + 0.500HO2 :                       GCARR(8.37E-14, 0.0E+00, 0.0);
MRO2 + MO2 = 0.595HAC + 0.255MGLY +
 0.595CO + 1.255CH2O + 1.700HO2 + 0.150ROH : GCARR(8.37E-14, 0.0E+00, 0.0);       {2013/03/22; Paulot2009; FP,EAM,JMAO,MJE}
MAN2 + MO2 = 0.375PROPNN + 0.375CO +
 0.375HO2 + 0.375MGLY + 0.375CH2O +
 0.375NO2 + 0.250CH2O + 0.250R4N2 :          GCARR(8.37E-14, 0.0E+00, 0.0);       {2013/03/22; Paulot2009; FP,EAM,JMAO,MJE}
B3O2 + MO2 = 0.500HO2 + 0.500ACET +
 0.250ACET + 0.750CH2O + 0.250MOH +
 0.250ROH + 0.500HO2 :                       GCARR(8.37E-14, 0.0E+00, 0.0);
INO2 + MO2 = 0.150NO2 + 0.400HO2 +
 0.350ISN1 + 0.035CH2O + 0.018MACR +
 0.018MVK + 0.115HC5 + 0.250ISN1 +
 0.250ISOPND + 0.500CH2O + 0.500HO2 +
 0.250CH2O + 0.250MOH :                      GCARR(1.30E-12, 0.0E+00, 0.0);       {2013/03/22; Paulot2009; FP,EAM,JMAO,MJE}
PRN1 + MO2 = NO2 + 0.500CH2O + 0.500ALD2 +
 0.250RCHO + 0.750CH2O + 0.250MOH +
 0.250ROH + 0.500HO2 :                       GCARR(8.37E-14, 0.0E+00, 0.0);
EOH + OH = HO2 + ALD2 :                      GCARR(3.35E-12, 0.0E+00, 0.0);       {2013/02/12; JPL 10-6; BHH,JMAO,EAM}
ROH + OH = HO2 + RCHO :                      GCARR(4.60E-12, 0.0E+00, 70.0);
ETO2 + ETO2 = 2.000ALD2 + 2.000HO2 :         GCARR(4.10E-14, 0.0E+00, 0.0);
ETO2 + ETO2 = EOH + ALD2 :                   GCARR(2.70E-14, 0.0E+00, 0.0);
HO2 + ETO2 = ETP :                           GCARR(7.40E-13, 0.0E+00, 700.0);
A3O2 + HO2 = RA3P :                          GC_RO2HO2(2.91E-13, 0.0E+00, 1300.0, 3.0, 0.0, 0.0); {2013/03/22; Paulot2009; FP,EAM,JMAO,MJE}
PO2 + HO2 = PP :                             GC_RO2HO2(2.91E-13, 0.0E+00, 1300.0, 3.0, 0.0, 0.0); {2013/03/22; Paulot2009; FP,EAM,JMAO,MJE}
HO2 + MCO3 = 0.410MAP + 0.150ACTA +
 0.150O3 + 0.440OH + 0.440MO2 :              GCARR(5.20E-13, 0.0E+00, 980.0);     {2013/03/22; Paulot2009; FP,EAM,JMAO,MJE}
RCO3 + HO2 = 0.410RP + 0.150RCOOH +
 0.150O3 + 0.440OH + 0.440ETO2 :             GCARR(4.30E-13, 0.0E+00, 1040.0);    {2013/03/22; Paulot2009; FP,EAM,JMAO,MJE}
NMAO3 + HO2 = 0.440OH + 0.150O3 +
 0.590CH2O + 0.390MO2 + 0.410MAOP +
 0.390CO :                                   GCARR(4.30E-13, 0.0E+00, 1040.0);    {2013/03/22; Paulot2009; FP,EAM,JMAO,MJE}
PRPE + OH {+M} = PO2 :                       GCJPLPR(4.60E-27, 4.0E+00, 0.0, 2.6E-11, 1.3, 0.0, 0.5, 0.0, 0.0); {2017/02/22; JPL 15-10; BHH,MJE}
PRPE + O3 = 0.500ALD2 + 0.500CH2O +
 0.120CH3CHOO + 0.100CH4 + 0.120CH2OO +
 0.280MO2 + 0.560CO + 0.280HO2 + 0.360OH :   GCARR(5.50E-15, 0.0E+00, -1880.0);   {2015/09/25; Millet2015; DBM,EAM}
NPMN + OH = HAC + CO + NO2 :                 GCARR(2.90E-11, 0.0E+00, 0.0);       {2013/03/22; Paulot2009; FP,EAM,JMAO,MJE}
IPMN + OH = 0.030HAC + 0.030CO +
 0.810NO3 + 0.781IMAE + 0.190PAN +
 0.190CH2O + 0.190HO2 :                      GCARR(3.00E-11, 0.0E+00, 0.0);       {2017/06/14; Marais2016; EAM}
NPMN + O3 = CH2O + MCO3 + NO3 :              GCARR(8.20E-18, 0.0E+00, 0.0);       {2015/07/06; Bug fix (v11-02b); DBM}
IMAE + OH = OH :                             GCARR(3.48E-12, 0.0E+00, 0.0);       {2017/06/14; Marais2016; EAM}
GLYC + OH = 0.732CH2O + 0.361CO2 +
 0.505CO + 0.227OH + 0.773HO2 +
 0.134GLYX + 0.134HCOOH :                    GC_GLYCOHA(8.00E-12, 0.0E+00, 0.0);  {2013/03/22; Paulot2009; FP,EAM,JMAO,MJE}
GLYC + OH = HCOOH + OH + CO :                GC_GLYCOHB(8.00E-12, 0.0E+00, 0.0);  {2013/03/22; Paulot2009; FP,EAM,JMAO,MJE}
PRPE + NO3 = PRN1 :                          GCARR(4.59E-13, 0.0E+00, -1156.0);
GLYX + OH = HO2 + 2.000CO :                  GCARR(3.10E-12, 0.0E+00, 340.0);     {2013/03/22; Paulot2009; FP,EAM,JMAO,MJE}
MGLY + OH = MCO3 + CO :                      GCARR(1.50E-11, 0.0E+00, 0.0);
GLYX + NO3 = HNO3 + HO2 + 2.000CO :          GC_GLYXNO3(1.40E-12, 0.0E+00, -1860.0);
MGLY + NO3 = HNO3 + CO + MCO3 :              GCARR(3.36E-12, 0.0E+00, -1860.0);   {2013/03/22; Paulot2009; FP,EAM,JMAO,MJE}
ISOP + OH = RIO2 + LISOPOH :                 GCARR(3.00E-11, 0.0E+00, 360.0);     {2017/02/22; JPL 15-10; BHH,MJE}
MVK + OH = VRO2 :                            GCARR(2.70E-12, 0.0E+00, 580.0);     {2017/02/22; JPL 15-10; BHH,MJE}
MACR + OH = 0.530IMAO3 + 0.470MRO2 :         GCARR(9.60E-12, 0.0E+00, 360.0);     {2017/02/22; JPL 15-10; BHH,MJE}
HAC + OH = MGLY + HO2 :                      GC_HACOHA(2.15E-12, 0.0E+00, 305.0); {2013/03/22; Paulot2009; FP,EAM,JMAO,MJE}
HAC + OH = 0.500HCOOH + OH + 0.500ACTA +
 0.500CO2 + 0.500CO + 0.500MO2 :             GC_HACOHB(2.15E-12, 0.0E+00, 305.0); {2013/03/22; Paulot2009; FP,EAM,JMAO,MJE}
MCO3 + A3O2 = MO2 + RCHO + HO2 :             GCARR(1.68E-12, 0.0E+00, 500.0);
MCO3 + PO2 = MO2 + ALD2 + CH2O + HO2 :       GCARR(1.68E-12, 0.0E+00, 500.0);
MCO3 + A3O2 = ACTA + RCHO :                  GCARR(1.87E-13, 0.0E+00, 500.0);
MCO3 + PO2 = ACTA + 0.350RCHO + 0.650HAC :   GCARR(1.87E-13, 0.0E+00, 500.0);
ISOP + O3 = 0.200MVK + 0.300MACR +
 0.456CH2O + 0.110CH2OO + 0.495CO +
 0.044MVKOO + 0.105MCO3 + 0.237HO2 +
 0.243OH + 0.102PRPE + 0.051MO2 +
 0.044MACROO + 0.054VRO2 :                   GCARR(1.00E-14, 0.0E+00, -1970.0);   {2017/06/14; Marais2016; EAM}
MVK + O3 = 0.360OH + 0.280HO2 + 0.560CO +
 0.120MGLOO + 0.100ALD2 + 0.500MGLY +
 0.600CH2O + 0.280MCO3 + 0.120CH2OO :        GCARR(8.5E-16, 0.0E+00, -1520.0);    {2017/02/22; JPL 15-10; BHH,MJE}
MACR + O3 = 0.239OH + 0.141HO2 + 0.625CO +
 0.326CH2OO + 0.880MGLY + 0.120CH2O +
 0.022MGLYOO + 0.098MCO3 :                   GCARR(1.50E-15, 0.0E+00, -2110.0);   {2017/06/14; Marais2016; EAM}
ISOP + NO3 = INO2 + LISOPNO3 :               GCARR(3.50E-12, 0.0E+00, -450.0);    {2017/02/22; JPL 15-10; BHH,MJE}
MACR + NO3 = MAN2 :                          GCARR(3.40E-15, 0.0E+00, 0.0);       {2017/02/22; JPL 15-10; BHH,MJE}
MACR + NO3 = 0.500IMAO3 + 0.500HNO3 +
 0.500MRO2 + 0.500HO2 + 0.500CO +
 0.500MAOP :                                 GCARR(1.50E-12, 0.0E+00, -1815.0);   {2017/06/14; Marais2016; EAM}
RCO3 + MO2 = CH2O + HO2 + ETO2 :             GCARR(1.68E-12, 0.0E+00, 500.0);
NMAO3 + MO2 = CH2O + HO2 + CH2O + MCO3 :     GCARR(1.68E-12, 0.0E+00, 500.0);
RCO3 + MO2 = RCOOH + CH2O :                  GCARR(1.87E-13, 0.0E+00, 500.0);
NMAO3 + MO2 = RCOOH + CH2O :                 GCARR(1.87E-13, 0.0E+00, 500.0);     {2013/03/22; Paulot2009; FP,EAM,JMAO,MJE}
INPN + OH = OH + NO2 + MEK :                 GCARR(1.90E-11, 0.0E+00, 390.0);     {2013/03/22; Paulot2009; FP,EAM,JMAO,MJE}
INPN + OH = 0.360INO2 + 0.640R4N2 +
 0.640OH :                                   GCARR(5.18E-12, 0.0E+00, 200.0);     {2013/03/22; Paulot2009; FP,EAM,JMAO,MJE}
PRPN + OH = 0.209PRN1 + 0.791OH +
 0.791PROPNN :                               GCARR(8.78E-12, 0.0E+00, 200.0);     {2013/03/22; Paulot2009; FP,EAM,JMAO,MJE}
ETP + OH = 0.640OH + 0.360ETO2 + 0.640ALD2 : GCARR(5.18E-12, 0.0E+00, 200.0);     {2013/03/22; Paulot2009; FP,EAM,JMAO,MJE}
RA3P + OH = 0.640OH + 0.360A3O2 +
 0.640RCHO :                                 GCARR(5.18E-12, 0.0E+00, 200.0);     {2013/03/22; Paulot2009; FP,EAM,JMAO,MJE}
RB3P + OH = 0.791OH + 0.209B3O2 +
 0.791ACET :                                 GCARR(8.78E-12, 0.0E+00, 200.0);     {2013/03/22; Paulot2009; FP,EAM,JMAO,MJE}
R4P + OH = 0.791OH + 0.209R4O2 + 0.791RCHO : GCARR(8.78E-12, 0.0E+00, 200.0);     {2013/03/22; Paulot2009; FP,EAM,JMAO,MJE}
RP + OH = RCO3 :                             GCARR(6.13E-13, 0.0E+00, 200.0);     {2013/03/22; Paulot2009; FP,EAM,JMAO,MJE}
PP + OH = 0.791OH + 0.209PO2 + 0.791HAC :    GCARR(8.78E-12, 0.0E+00, 200.0);     {2013/03/22; Paulot2009; FP,EAM,JMAO,MJE}
RIPA + OH = 0.750RIO2 + 0.243HC5 +
 0.125OH + 0.125H2O + 0.007LVOC :            GCARR(6.13E-12, 0.0E+00, 200.0);     {2017/07/14; StClair2016,Marais2016; KRT,JAF,CCM,EAM,KHB,RHS}
RIPB + OH = 0.480RIO2 + 0.513HC5 +
 0.260OH + 0.260H2O + 0.007LVOC :            GCARR(4.14E-12, 0.0E+00, 200.0);     {2017/07/14; StClair2016,Marais2016; KRT,JAF,CCM,EAM,KHB,RHS}
RIPD + OH = 0.250RIO2 + 0.743HC5 +
 0.375OH + 0.375H2O + 0.007LVOC :            GCARR(5.11E-12, 0.0E+00, 200.0);     {2017/07/14; StClair2016,Marais2016; KRT,JAF,CCM,EAM,KHB,RHS}
RIPA + OH = 0.850OH + 0.578IEPOXA +
 0.272IEPOXB + 0.143HC5OO + 0.007LVOC :      GCARR(1.70E-11, 0.0E+00, 390.0);     {2017/07/14; StClair2016,Marais2016; KRT,JAF,CCM,EAM,KHB,RHS}
RIPB + OH = OH + 0.680IEPOXA + 0.320IEPOXB : GCARR(2.97E-11, 0.0E+00, 390.0);     {2017/07/14; StClair2016; KRT,JAF,CCM,EAM,KHB,RHS}
RIPD + OH = 0.500OH + 0.500IEPOXD +
 0.493HC5OO + 0.007LVOC :                    GCARR(2.92E-11, 0.0E+00, 390.0);     {2017/07/14; StClair2016,Marais2016; KRT,JAF,CCM,EAM,KHB,RHS}
LVOC + OH = OH :                             GCARR(4.82E-11, 0.0E+00, -400.0);    {2017/06/14; Marais2016; EAM}
IEPOXA + OH = IEPOXOO :                      GCARR(3.73E-11, 0.0E+00, -400.0);    {2017/07/14; Bates2014; KRT,JAF,CCM,EAM,KHB,RHS}
IEPOXB + OH = IEPOXOO :                      GCARR(5.79E-11, 0.0E+00, -400.0);    {2017/07/14; Bates2014; KRT,JAF,CCM,EAM,KHB,RHS}
IEPOXD + OH = IEPOXOO :                      GCARR(3.20E-11, 0.0E+00, -400.0);    {2017/07/14; Bates2014; KRT,JAF,CCM,EAM,KHB,RHS}
IEPOXOO + HO2 = 0.085HAC + 0.025GLYC +
 0.085GLYX + 0.085MGLY + 1.125OH +
 0.825HO2 + 1.100CO2 + 0.375CH2O +
 0.278HCOOH + 0.600CO + 0.440HC187 +
 0.072CO2 :                                  GCARR(2.06E-13, 0.0E+00, 1300.0);    {2017/07/14; Bates2014; KRT,JAF,CCM,EAM,KHB,RHS}
IEPOXOO + NO = 0.117HAC + 0.088GLYC +
 0.088GLYX + 0.088MGLY + 0.125OH +
 0.825HO2 + 0.800CO2 + 0.375CH2O +
 0.142HCOOH + 0.678CO + NO2 + 0.473HC187 +
 0.058CO2 :                                  GCARR(2.70E-12, 0.0E+00, 350.0);     {2017/07/14; Bates2014; KRT,JAF,CCM,EAM,KHB,RHS}
IAP + OH = 0.654OH + 0.654DHMOB +
 0.346HC5OO :                                GCARR(5.31E-12, 0.0E+00, 200.0);     {2013/03/22; Paulot2009; FP,EAM,JMAO,MJE}
VRP + OH = 0.791OH + 0.791MEK + 0.209VRO2 :  GCARR(8.78E-12, 0.0E+00, 200.0);     {2013/03/22; Paulot2009; FP,EAM,JMAO,MJE}
MRP + OH = MRO2 :                            GCARR(1.84E-12, 0.0E+00, 200.0);     {2013/03/22; Paulot2009; FP,EAM,JMAO,MJE}
MRP + OH = CO2 + HAC + OH :                  GCARR(4.40E-12, 0.0E+00, 380.0);     {2013/03/22; Paulot2009; FP,EAM,JMAO,MJE}
MAOP + OH = NMAO3 :                          GCARR(6.13E-13, 0.0E+00, 200.0);     {2013/03/22; Paulot2009; FP,EAM,JMAO,MJE}
MAOP + OH = MAOPO2 :                         GCARR(3.60E-12, 0.0E+00, 380.0);     {2013/03/22; Paulot2009; FP,EAM,JMAO,MJE}
MCO3 + MAOPO2 = HAC + 2.000CO2 + OH + MO2 :  GCARR(1.68E-12, 0.0E+00, 500.0);     {2013/03/22; Paulot2009; FP,EAM,JMAO,MJE}
MCO3 + MAOPO2 = ACTA + MEK :                 GCARR(1.87E-13, 0.0E+00, 500.0);     {2013/03/22; Paulot2009; FP,EAM,JMAO,MJE}
MAOPO2 + MO2 = 0.700HAC + 0.700CO2 +
 0.700OH + CH2O + 0.700HO2 + 0.300ROH :      GCARR(8.37E-14, 0.0E+00, 0.0);       {2013/03/22; Paulot2009; FP,EAM,JMAO,MJE}
MAOPO2 + MAOPO2 = 2.000HAC + 2.000CO2 +
 2.000OH :                                   GCARR(8.37E-14, 0.0E+00, 0.0);       {2013/03/22; Paulot2009; FP,EAM,JMAO,MJE}
MAOPO2 + HO2 = HAC + CO2 + 2.000OH :         GC_RO2HO2(2.91E-13, 0.0E+00, 1300.0, 4.0, 0.0, 0.0); {2013/03/22; Paulot2009; FP,EAM,JMAO,MJE}
MAOPO2 + NO = HAC + CO2 + OH + NO2 :         GC_RO2NO('B', 2.70E-12, 0.0E+00, 350.0, 4.0, 0.0, 0.0); {2013/03/22; Paulot2009; FP,EAM,JMAO,MJE}
MAOPO2 + NO = HNO3 :                         GC_RO2NO('A', 2.70E-12, 0.0E+00, 350.0, 4.0, 0.0, 0.0); {2013/03/22; Paulot2009; FP,EAM,JMAO,MJE}
OH + MAP = MCO3 :                            GCARR(6.13E-13, 0.0E+00, 200.0);     {2013/03/22; Paulot2009; FP,EAM,JMAO,MJE}
C2H6 + NO3 = ETO2 + HNO3 :                   GCARR(1.40E-18, 0.0E+00, 0.0);       {2013/03/22; Paulot2009; FP,EAM,JMAO,MJE}
HC5 + O3 = 0.500GLYC + 0.500MGLY +
 0.055MGLYOO + 0.890CO + 0.445MCO3 +
 0.055GAOO + 0.445HO2 + 0.445CH2O +
 0.890OH :                                   GCARR(6.16E-15, 0.0E+00, -1814.0);   {2015/09/25; Millet2015; DBM,EAM}
MCO3 + MCO3 = 2.000MO2 :                     GCARR(2.50E-12, 0.0E+00, 500.0);
MCO3 + MO2 = CH2O + MO2 + HO2 :              GCARR(1.80E-12, 0.0E+00, 500.0);
MCO3 + MO2 = ACTA + CH2O :                   GCARR(2.00E-13, 0.0E+00, 500.0);
R4O2 + MCO3 = MO2 + 0.320ACET + 0.190MEK +
 0.270HO2 + 0.320ALD2 + 0.130RCHO +
 0.050A3O2 + 0.180B3O2 + 0.320ETO2 :         GCARR(1.68E-12, 0.0E+00, 500.0);     {2013/03/22; Paulot2009; FP,EAM,JMAO,MJE}
ATO2 + MCO3 = MO2 + MCO3 + CH2O :            GCARR(1.68E-12, 0.0E+00, 500.0);     {2013/03/22; Paulot2009; FP,EAM,JMAO,MJE}
KO2 + MCO3 = MO2 + ALD2 + MCO3 :             GCARR(1.68E-12, 0.0E+00, 500.0);
RIO2 + MCO3 = 0.887HO2 + 0.747CH2O +
 0.453MVK + 0.294MACR + 0.140HC5 +
 0.113DIBOO + CO2 + MO2 :                    GCARR(1.68E-12, 0.0E+00, 500.0);     {2013/03/22; Paulot2009; FP,EAM,JMAO,MJE}
HC5OO + MCO3 = 0.216GLYX + 0.234MGLY +
 0.234GLYC + 0.216HAC + 0.290DHMOB +
 0.170MOBA + 0.090RCHO + HO2 + 0.090CO +
 MO2 :                                       GCARR(1.68E-12, 0.0E+00, 500.0);     {2013/03/22; Paulot2009; FP,EAM,JMAO,MJE}
VRO2 + MCO3 = 0.400HO2 + 0.400CH2O +
 0.600MCO3 + 0.600GLYC + 0.400MGLY + MO2 :   GCARR(1.68E-12, 0.0E+00, 500.0);     {2013/03/22; Paulot2009; FP,EAM,JMAO,MJE}
MRO2 + MCO3 = 0.850HO2 + 0.143MGLY +
 0.857HAC + 0.857CO + 0.143CH2O + MO2 :      GCARR(1.68E-12, 0.0E+00, 500.0);     {2013/03/22; Paulot2009; FP,EAM,JMAO,MJE}
B3O2 + MCO3 = MO2 + HO2 + ACET :             GCARR(1.68E-12, 0.0E+00, 500.0);
R4N1 + MCO3 = MO2 + NO2 + 0.390CH2O +
 0.750ALD2 + 0.570RCHO + 0.300R4O2 :         GCARR(1.68E-12, 0.0E+00, 500.0);
MAN2 + MCO3 = 0.500PROPNN + 0.500CO +
 0.500HO2 + 0.500MGLY + 0.500CH2O +
 0.500NO2 + CO2 + MO2 :                      GCARR(1.68E-12, 0.0E+00, 500.0);     {2013/03/22; Paulot2009; FP,EAM,JMAO,MJE}
INO2 + MCO3 = MO2 + 0.700ISN1 + 0.800HO2 +
 0.035MVK + 0.035MACR + 0.070CH2O +
 0.300NO2 + 0.230HC5 :                       GCARR(1.68E-12, 0.0E+00, 500.0);     {2013/03/22; Paulot2009; FP,EAM,JMAO,MJE}
PRN1 + MCO3 = MO2 + NO2 + CH2O + ALD2 :      GCARR(1.68E-12, 0.0E+00, 500.0);
R4O2 + MCO3 = MEK + ACTA :                   GCARR(1.87E-13, 0.0E+00, 500.0);
ATO2 + MCO3 = MGLY + ACTA :                  GCARR(1.87E-13, 0.0E+00, 500.0);     {2017/07/27; Fix C creation; SAS,BHH,MJE}
KO2 + MCO3 = MEK + ACTA :                    GCARR(1.87E-13, 0.0E+00, 500.0);
RIO2 + MCO3 = MEK + ACTA :                   GCARR(1.87E-13, 0.0E+00, 500.0);
HC5OO + MCO3 = MEK + ACTA :                  GCARR(1.87E-13, 0.0E+00, 500.0);     {2013/03/22; Paulot2009; FP,EAM,JMAO,MJE}
VRO2 + MCO3 = MEK + ACTA :                   GCARR(1.87E-13, 0.0E+00, 500.0);
MRO2 + MCO3 = MEK + ACTA :                   GCARR(1.87E-13, 0.0E+00, 500.0);
R4N1 + MCO3 = RCHO + ACTA + NO2 :            GCARR(1.87E-13, 0.0E+00, 500.0);
MAN2 + MCO3 = RCHO + ACTA + NO2 :            GCARR(1.87E-13, 0.0E+00, 500.0);
INO2 + MCO3 = RCHO + ACTA + NO2 :            GCARR(1.87E-13, 0.0E+00, 500.0);
PRN1 + MCO3 = RCHO + ACTA + NO2 :            GCARR(1.87E-13, 0.0E+00, 500.0);
B3O2 + MCO3 = ACET + ACTA :                  GCARR(1.87E-13, 0.0E+00, 500.0);
MCO3 + ETO2 = MO2 + ALD2 + HO2 :             GCARR(1.68E-12, 0.0E+00, 500.0);
MCO3 + ETO2 = ACTA + ALD2 :                  GCARR(1.87E-13, 0.0E+00, 500.0);
RCO3 + MCO3 = MO2 + ETO2 :                   GCARR(2.50E-12, 0.0E+00, 500.0);
NMAO3 + MCO3 = MO2 + CH2O + MCO3 :           GCARR(2.50E-12, 0.0E+00, 500.0);
NO3 + NO3 = 2.000NO2 + O2 :                  GCARR(8.50E-13, 0.0E+00, -2450.0);
MO2 + NO2 {+M} = MPN {+M} :                  GCJPLPR(1.00E-30, 4.8E+00, 0.0, 7.2E-12, 2.1E0, 0.0, 0.6, 0.0, 0.0); {2012/02/12; Browne2011; ECB}
MPN {+M} = MO2 + NO2 :                       GCJPLPR(1.05E-02, 4.8E+00, -11234.0, 7.58E16, 2.1E0, -11234.0, 0.6, 0.0, 0.0); {2012/02/12; Browne2011; ECB}
ISOPNB + O3 =  0.050HO2 + 0.110MVKN +
 0.320MACRN + 0.160HCOOH + 0.050OH +
 0.620CH2O + 0.360CO2 + 0.210CO +
 0.060PROPNN + 0.360PROPNN + 0.100MVKN +
 0.410HNO3 :                                 GCARR(3.70E-19, 0.0E+00, 0.0);       {2017/07/14; Lee2014; KRT,JAF,CCM,EAM,KHB,RHS}
ISOPND + O3 = 0.060NO2 + 0.240PROPNN +
 0.260ETHLN + 0.370OH + 0.240GLYC +
 0.260HAC + 0.630CO2 + 0.240MOH +
 0.09EOH + 0.200CH2O + 0.100MCO3 +
 0.060GLYX + 0.160HAC + 0.140PROPNN +
 0.300HNO3 :                                 GCARR(2.90E-17, 0.0E+00, 0.0);       {2017/07/14; Lee2014; KRT,JAF,CCM,EAM,KHB,RHS}
DMS + OH = SO2 + MO2 + CH2O :                GCARR(1.20E-11, 0.0E+00, -280.0);
DMS + OH = 0.750SO2 + 0.250MSA + MO2 :       GC_DMSOH(8.20E-39, 0.0E+00, 5376.0, 1.05E-5, 0.0, 3644.0);
DMS + NO3 = SO2 + HNO3 + MO2 + CH2O :        GCARR(1.90E-13, 0.0E+00, 530.0);
SO2 + OH {+M} = SO4 + HO2 :                  GCJPLPR(3.30E-31, 4.3E+00, 0.0, 1.6E-12, 0.0, 0.0, 0.6, 0.0, 0.0);
Br + O3 = BrO + O2 :                         GCARR(1.60E-11, 0.0E+00, -780.0);    {2012/06/07; Parrella2012; JPP}
BrO + HO2 = HOBr + O2 :                      GCARR(4.50E-12, 0.0E+00, 460.0);     {2012/06/07; Parrella2012; JPP}
Br + HO2 = HBr + O2 :                        GCARR(4.80E-12, 0.0E+00, -310.0);    {2012/06/07; Parrella2012; JPP}
HBr + OH = Br + H2O :                        GCARR(5.50E-12, 0.0E+00, 200.0);     {2012/06/07; Parrella2012; JPP}
BrO + BrO = 2.000Br + O2 :                   GCARR(2.40E-12, 0.0E+00, 40.0);      {2012/06/07; Parrella2012; JPP}
BrO + BrO = Br2 + O2 :                       GCARR(2.80E-14, 0.0E+00, 860.0);     {2012/06/07; Parrella2012; JPP}
BrO + NO = Br + NO2 :                        GCARR(8.80E-12, 0.0E+00, 260.0);     {2012/06/07; Parrella2012; JPP}
Br + BrNO3 = Br2 + NO3 :                     GCARR(4.90E-11, 0.0E+00, 0.0);       {2012/06/07; Parrella2012; JPP}
Br2 + OH = HOBr + Br :                       GCARR(2.10E-11, 0.0E+00, 240.0);     {2012/06/07; Parrella2012; JPP}
HOBr + O = OH + BrO :                        GCARR(1.20E-10, 0.0E+00, -430.0);    {2014/02/03; Eastham2014; SDE}
HBr + O = OH + Br :                          GCARR(5.80E-12, 0.0E+00, -1500.0);   {2014/02/03; Eastham2014; SDE}
BrO + OH = Br + HO2 :                        GCARR(1.70E-11, 0.0E+00, 250.0);     {2012/06/07; Parrella2012; JPP}
Br + NO3 = BrO + NO2 :                       GCARR(1.60E-11, 0.0E+00, 0.0);       {2012/06/07; Parrella2012; JPP}
Br + CH2O = HBr + HO2 + CO :                 GCARR(1.70E-11, 0.0E+00, -800.0);    {2012/06/07; Parrella2012; JPP}
Br + ALD2 = HBr + MCO3 :                     GCARR(1.80E-11, 0.0E+00, -460.0);    {2017/07/27; Parrella2012,Fix C creation; SAS,BHH,MJE}
Br + ACET = HBr + ATO2 :                     GCARR(1.66E-10, 0.0E+00, -7000.0);   {2017/07/27; Parrella2012,Fix C creation; SAS,BHH,MJE}
Br + C2H6 = HBr + ETO2 :                     GCARR(2.36E-10, 0.0E+00, -6411.0);   {2017/07/27; Parrella2012,Fix C creation; SAS,BHH,MJE}
Br + C3H8 = HBr + A3O2 :                     GCARR(8.77E-11, 0.0E+00, -4330.0);   {2017/07/27; Parrella2012,Fix C creation; SAS,BHH,MJE}
Br + NO2 {+M} = BrNO2 {+M} :                 GCJPLPR(4.20E-31, 2.4E+00, 0.0, 2.7E-11, 0.0, 0.0, 0.6, 0.0, 0.0); {2012/06/07; Parrella2012; JPP}
BrO + NO2 {+M} = BrNO3 {+M} :                GCJPLPR(5.40E-31, 3.1E+00, 0.0, 6.5E-12, 2.9, 0.0, 0.6, 0.0, 0.0); {2017/02/22; JPL 15-10; BHH,MJE}
CHBr3 + OH = 3.000Br :                       GCARR(9.00E-13, 0.0E+00, -360.0);    {2017/02/22; JPL 15-10; BHH,MJE}
CH2Br2 + OH = 2.000Br :                      GCARR(2.00E-12, 0.0E+00, -840.0);    {2012/06/07; Parrella2012; JPP}
CH3Br + OH = Br + H2O + HO2 :                GCARR(1.42E-12, 0.0E+00, -1150.0);   {2017/03/08; JPL 15-10; TS,BHH,MJE}
O1D + H2O = 2.000OH :                        GCARR(1.63E-10, 0.0E+00, 60.0);      {2014/02/03; Eastham2014; SDE}
O1D + N2 = O + N2 :                          GCARR(2.15E-11, 0.0E+00, 110.0);     {2014/02/03; Eastham2014; SDE}
O1D + O2 = O + O2 :                          GCARR(3.30E-11, 0.0E+00, 55.0);      {2014/02/03; Eastham2014; SDE}
O1D + H2 = H + OH :                          GCARR(1.20E-10, 0.0E+00, 0.0);       {2014/02/03; Eastham2014; SDE}
O1D + N2O = N2 + O2 :                        GCARR(4.63E-11, 0.0E+00, 20.0);      {2014/02/03; Eastham2014; SDE}
O1D + N2O = 2.000NO :                        GCARR(7.25E-11, 0.0E+00, 20.0);      {2014/02/03; Eastham2014; SDE}
O1D + CH4 = MO2 + OH :                       GCARR(1.31E-10, 0.0E+00, 0.0);       {2014/02/03; Eastham2014; SDE}
O1D + CH4 = CH2O + H2 :                      GCARR(0.09E-10, 0.0E+00, 0.0);       {2014/02/03; Eastham2014; SDE}
O1D + CH4 = CH2O + H + HO2 :                 GCARR(0.35E-10, 0.0E+00, 0.0);       {2014/02/03; Eastham2014; SDE}
O + O2 {+M} = O3 {+M} :                      GCARR(6.00E-34, 2.4E+00, 0.0)*NUMDEN; {2014/02/03; Eastham2014; SDE}
O + O3 = 2.000O2 :                           GCARR(8.00E-12, 0.0E+00, -2060.0);   {2014/02/03; Eastham2014; SDE}
OH + H2 = H2O + H :                          GCARR(2.80E-12, 0.0E+00, -1800.0);   {2014/02/03; Eastham2014; SDE}
O + OH = O2 + H :                            GCARR(1.80E-11, 0.0E+00, 180.0);     {2014/02/03; Eastham2014; SDE}
HO2 + O = OH + O2 :                          GCARR(3.00E-11, 0.0E+00, 200.0);     {2014/02/03; Eastham2014; SDE}
O1D + O3 = 2.000O2 :                         GCARR(1.20E-10, 0.0E+00, 0.0);       {2014/02/03; Eastham2014; SDE}
O1D + O3 = 2.000O + O2 :                     GCARR(1.20E-10, 0.0E+00, 0.0);       {2014/02/03; Eastham2014; SDE}
OCS + O = CO + SO2 :                         GCARR(2.10E-11, 0.0E+00, -2200.0);   {2014/02/03; Eastham2014; SDE}
OCS + OH = CO2 + SO2 :                       GCARR(1.10E-13, 0.0E+00, -1200.0);   {2014/02/03; Eastham2014; SDE}
NO2 + O = NO + O2 :                          GCARR(5.10E-12, 0.0E+00, 210.0);     {2014/02/03; Eastham2014; SDE}
NO3 + O = NO2 + O2 :                         GCARR(1.00E-11, 0.0E+00, 0.0);       {2014/02/03; Eastham2014; SDE}
NO + O {+M} = NO2 {+M} :                     GCJPLPR(9.00E-32, 1.5E+00, 0.0, 3.0E-11, 0.0E0, 0.0, 0.6, 0.0, 0.0); {2014/02/03; Eastham2014; SDE}
NO2 + O {+M} = NO3 {+M} :                    GCJPLPR(2.50E-31, 1.8E+00, 0.0, 2.2E-11, 0.7E0, 0.0, 0.6, 0.0, 0.0); {2014/02/03; Eastham2014; SDE}
H2O2 + O = OH + HO2 :                        GCARR(1.40E-12, 0.0E+00, -2000.0);   {2014/02/03; Eastham2014; SDE}
H + O2 {+M} = HO2 {+M} :                     GCJPLPR(4.40E-32, 1.3E+00, 0.0, 7.5E-11, -0.2E0, 0.0, 0.6, 0.0, 0.0); {2014/02/03; Eastham2014; SDE}
H + O3 = OH + O2 :                           GCARR(1.40E-10, 0.0E+00, -470.0);    {2014/02/03; Eastham2014; SDE}
H + HO2 = 2.000OH :                          GCARR(7.20E-11, 0.0E+00, 0.0);       {2014/02/03; Eastham2014; SDE}
H + HO2 = O + H2O :                          GCARR(1.60E-12, 0.0E+00, 0.0);       {2014/02/03; Eastham2014; SDE}
H + HO2 = H2 + O2 :                          GCARR(6.90E-12, 0.0E+00, 0.0);       {2014/02/03; Eastham2014; SDE}
N + O2 = NO + O :                            GCARR(1.50E-11, 0.0E+00, -3600.0);   {2014/02/03; Eastham2014; SDE}
N + NO = N2 + O :                            GCARR(2.10E-11, 0.0E+00, 100.0);     {2014/02/03; Eastham2014; SDE}
N + NO2 = N2O + O :                          GCARR(5.80E-12, 0.0E+00, 220.0);     {2014/02/03; Eastham2014; SDE}
BrO + O = Br + O2 :                          GCARR(1.90E-11, 0.0E+00, 230.0);     {2014/02/03; Eastham2014; SDE}
CH2O + O = CO + HO2 + OH :                   GCARR(3.40E-11, 0.0E+00, -1600.0);   {2014/02/03; Eastham2014; SDE}
O1D + HCl = 0.090O + 0.090HCl + 0.240H +
 0.670Cl + 0.240ClO + 0.670OH :              GCARR(1.50E-10, 0.0E+00, 0.0);       {2014/02/03; Eastham2014; SDE}
O1D + HBr = 0.200O + 0.200HBr + 0.150BrO +
 0.650OH + 0.150H + 0.650Br :                GCARR(1.50E-10, 0.0E+00, 0.0);       {2014/02/03; Eastham2014; SDE}
O1D + Cl2 = 0.250O + 0.250Cl2 + 0.750Cl +
 0.750ClO :                                  GCARR(2.70E-10, 0.0E+00, 0.0);       {2014/02/03; Eastham2014; SDE}
O1D + CCl4 = 0.140O + 0.140CCl4 +
 0.860ClO + 2.580Cl :                        GCARR(3.30E-10, 0.0E+00, 0.0);       {2014/02/03; Eastham2014; SDE}
O1D + CH3Br = 0.440BrO + MO2 + 0.560Br :     GCARR(1.80E-10, 0.0E+00, 0.0);       {2014/02/03; Eastham2014; SDE}
O1D + CH2Br2 = 0.050O + 0.050CH2Br2 +
 0.950BrO + 0.950Br :                        GCARR(2.70E-10, 0.0E+00, 0.0);       {2014/02/03; Eastham2014; SDE}
O1D + CHBr3 = 0.320O + 0.320CHBr3 +
 0.680BrO + 1.360Br :                        GCARR(6.60E-10, 0.0E+00, 0.0);       {2014/02/03; Eastham2014; SDE}
O1D + HCFC22 = 0.280O + 0.280HCFC22 +
 0.550ClO + 0.170Cl :                        GCARR(1.02E-10, 0.0E+00, 0.0);       {2017/02/22; JPL 15-10; BHH,MJE}
O1D + CFC11 = 0.120O + 0.120CFC11 +
 0.880ClO + 1.760Cl :                        GCARR(2.30E-10, 0.0E+00, 0.0);       {2014/02/03; Eastham2014; SDE}
O1D + CFC12 = 0.140O + 0.140CFC12 +
 0.860ClO + 1.720Cl :                        GCARR(1.40E-10, 0.0E+00, 0.0);       {2014/02/03; Eastham2014; SDE}
O1D + H1211 = 0.360O + 0.360H1211 +
 0.310BrO + 0.310Cl + 0.330Br + 0.330ClO :   GCARR(1.50E-10, 0.0E+00, 0.0);       {2014/02/03; Eastham2014; SDE}
O1D + H1301 = 0.590O + 0.590H1301 +
 0.410BrO :                                  GCARR(1.00E-10, 0.0E+00, 0.0);       {2014/02/03; Eastham2014; SDE}
O1D + HCFC141b = 0.310O + 0.310HCFC141b +
 0.690ClO + 0.690Cl :                        GCARR(2.60E-10, 0.0E+00, 0.0);       {2014/02/03; Eastham2014; SDE}
O1D + HCFC142b = 0.260O + 0.260HCFC142b +
 0.740ClO :                                  GCARR(2.00E-10, 0.0E+00, 0.0);       {2017/02/22; JPL 15-10; BHH,MJE}
O1D + HCFC123 = 0.210O + 0.210HCFC123 +
 0.790Cl + 0.790ClO :                        GCARR(2.00E-10, 0.0E+00, 0.0);       {2014/02/03; Eastham2014; SDE}
O1D + CFC113 = 0.250O + 0.250CFC113 +
 1.500Cl + 0.750ClO :                        GCARR(2.32E-10, 0.0E+00, 0.0);       {2017/02/22; JPL 15-10; BHH,MJE}
O1D + CFC114 = 0.250O + 0.250CFC114 +
 0.750Cl + 0.750ClO :                        GCARR(1.30E-10, 0.0E+00, -25.0);     {2017/02/22; JPL 15-10; BHH,MJE}
O1D + CFC115 = 0.700O + 0.700CFC115 +
 0.300ClO :                                  GCARR(5.40E-11, 0.0E+00, -30.0);     {2017/02/22; JPL 15-10; BHH,MJE}
O1D + H2402 = 0.250O + 0.250H2402 +
 0.750Br + 0.750BrO :                        GCARR(1.60E-10, 0.0E+00, 0.0);       {2014/02/03; Eastham2014; SDE}
OH + Cl2 = HOCl + Cl :                       GCARR(2.60E-12, 0.0E+00, -1100.0);   {2014/02/03; Eastham2014; SDE}
MO2 + ClO = ClOO + HO2 + CH2O :              GCARR(1.80E-11, 0.0E+00, -600.0);    {2017/03/20; JPL 15-10; TS,BHH,MJE}
OH + ClO = HO2 + Cl :                        GCARR(7.40E-12, 0.0E+00, 270.0);     {2014/02/03; Eastham2014; SDE}
OH + ClO = HCl + O2 :                        GCARR(6.00E-13, 0.0E+00, 230.0);     {2014/02/03; Eastham2014; SDE}
OH + OClO = HOCl + O2 :                      GCARR(1.40E-12, 0.0E+00, 600.0);     {2017/02/22; JPL 15-10; BHH,MJE}
OH + Cl2O2 = HOCl + ClOO :                   GCARR(6.00E-13, 0.0E+00, 670.0);     {2014/02/03; Eastham2014; SDE}
OH + HCl = H2O + Cl :                        GCARR(1.80E-12, 0.0E+00, -250.0);    {2014/02/03; Eastham2014; SDE}
OH + HOCl = H2O + ClO :                      GCARR(3.00E-12, 0.0E+00, -500.0);    {2014/02/03; Eastham2014; SDE}
OH + ClNO2 = HOCl + NO2 :                    GCARR(2.40E-12, 0.0E+00, -1250.0);   {2014/02/03; Eastham2014; SDE}
OH + ClNO3 = HOCl + NO3 :                    GCARR(1.20E-12, 0.0E+00, -330.0);    {2014/02/03; Eastham2014; SDE}
OH + CH3Cl = Cl + HO2 + H2O :                GCARR(1.96E-12, 0.0E+00, -1200.0);   {2017/02/22; JPL 15-10; BHH,MJE}
OH + CH2Cl2 = 2.000Cl + HO2 :                GCARR(2.61E-12, 0.0E+00, -944.0);    {2017/09/22; Sherwen2016b;TS,JAS,SDE}
OH + CHCl3 = 3.000Cl + HO2 :                 GCARR(4.69E-12, 0.0E+00, -1134.0);   {2017/09/22; Sherwen2016b;TS,JAS,SDE}
OH + CH3CCl3 = 3.000Cl + H2O :               GCARR(1.64E-12, 0.0E+00, -1520.0);   {2014/02/03; Eastham2014; SDE}
OH + HCFC22 = Cl + H2O :                     GCARR(9.20E-13, 0.0E+00, -1560.0);   {2017/02/22; JPL 15-10; BHH,MJE}
OH + HCFC141b = 2.000Cl + H2O :              GCARR(1.25E-12, 0.0E+00, -1600.0);   {2014/02/03; Eastham2014; SDE}
OH + HCFC142b = Cl + H2O :                   GCARR(1.30E-12, 0.0E+00, -1770.0);   {2014/02/03; Eastham2014; SDE}
OH + HCFC123 = 2.000Cl + H2O :               GCARR(7.40E-13, 0.0E+00, -900.0);    {2017/02/22; JPL 15-10; BHH,MJE}
CH4 + Cl = HCl + MO2 :                       GCARR(7.10E-12, 0.0E+00, -1270.0);   {2017/03/08; JPL 15-10; TS,BHH,MJE}
CH2O + Cl = CO + HCl + HO2 :                 GCARR(7.32E-11, 0.0E+00, -30.0);     {2017/09/22; Sherwen2016b; TS,JAS,SDE}
Cl + O3 = ClO + O2 :                         GCARR(2.30E-11, 0.0E+00, -200.0);    {2014/02/03; Eastham2014; SDE}
Cl + H2 = H + HCl :                          GCARR(3.05E-11, 0.0E+00, -2270.0);   {2014/02/03; Eastham2014; SDE}
Cl + H2O2 = HO2 + HCl :                      GCARR(1.10E-11, 0.0E+00, -980.0);    {2014/02/03; Eastham2014; SDE}
Cl + HO2 = O2 + HCl :                        GCARR(1.40E-11, 0.0E+00, 270.0);     {2014/02/03; Eastham2014; SDE}
Cl + HO2 = OH + ClO :                        GCARR(3.60E-11, 0.0E+00, -375.0);    {2014/02/03; Eastham2014; SDE}
ClO + O = Cl + O2 :                          GCARR(2.80E-11, 0.0E+00, 85.0);      {2014/02/03; Eastham2014; SDE}
ClO + HO2 = O2 + HOCl :                      GCARR(2.60E-12, 0.0E+00, 290.0);     {2014/02/03; Eastham2014; SDE}
ClO + NO = Cl + NO2 :                        GCARR(6.40E-12, 0.0E+00, 290.0);     {2014/02/03; Eastham2014; SDE}
ClO + NO2 {+M} = ClNO3 {+M} :                GCJPLPR(1.80E-31, 3.4E+00, 0.0, 1.50E-11, 1.9E0, 0.0, 0.6, 0.0, 0.0); {2014/02/03; Eastham2014; SDE}
ClO + ClO = Cl2 + O2 :                       GCARR(1.00E-12, 0.0E+00, -1590.0);   {2014/02/03; Eastham2014; SDE}
ClO + ClO = Cl + ClOO :                      GCARR(3.00E-11, 0.0E+00, -2450.0);   {2014/02/03; Eastham2014; SDE}
ClO + ClO = OClO + Cl :                      GCARR(3.50E-13, 0.0E+00, -1370.0);   {2014/02/03; Eastham2014; SDE}
Cl + O2 {+M} = ClOO {+M} :                   GCJPLPR(2.20E-33, 3.1E+00, 0.0, 1.8E-10, 0.0, 0.0, 0.6, 0.0, 0.0); {2014/02/03; Eastham2014; SDE}
ClOO {+M} = Cl + O2 {+M} :                   GCJPLPR(3.33E-09, 3.1E+00, -2502.0, 2.73E+14, 0.0, -2502.0, 0.6, 0.0, 0.0); {2014/02/03; Eastham2014; SDE}
ClO + ClO {+M} = Cl2O2 {+M} :                GCJPLPR(1.90E-32, 3.6E+00, 0.0, 3.7E-12, 1.6, 0.0, 0.6, 0.0, 0.0); {2017/02/22; JPL 15-10; BHH,MJE}
Cl2O2 {+M} = 2.000ClO {+M} :                 GCJPLPR(9.30E-06, 4.5E+00, -8649.0, 1.74E+15, 2.0E0, -8649.0, 0.6, 0.0, 0.0);
ClOO + Cl = Cl2 + O2 :                       GCARR(2.30E-10, 0.0E+00, 0.0);       {2014/02/03; Eastham2014; SDE}
ClOO + Cl = 2.000ClO :                       GCARR(1.20E-11, 0.0E+00, 0.0);       {2014/02/03; Eastham2014; SDE}
ClO + BrO = Br + OClO :                      GCARR(9.50E-13, 0.0E+00, 550.0);     {2014/02/03; Eastham2014; SDE}
ClO + BrO = Br + ClOO :                      GCARR(2.30E-12, 0.0E+00, 260.0);     {2014/02/03; Eastham2014; SDE}
ClO + BrO = BrCl + O2 :                      GCARR(4.10E-13, 0.0E+00, 290.0);     {2014/02/03; Eastham2014; SDE}
ClNO3 + O = ClO + NO3 :                      GCARR(3.60E-12, 0.0E+00, -840.0);    {2014/02/03; Eastham2014; SDE}
ClNO3 + Cl = Cl2 + NO3 :                     GCARR(6.50E-12, 0.0E+00, 135.0);     {2014/02/03; Eastham2014; SDE}
CH3Cl + Cl = CO + 2.000HCl + HO2 :           GCARR(2.17E-11, 0.0E+00, -1130.0);   {2014/02/03; Eastham2014; SDE}
CH2Cl2 + Cl = CO + HCl + 2.000Cl + HO2 :     GCARR(1.24E-12, 0.0E+00, -1070.0);   {2017/09/22; Sherwen2016b;TS,JAS,SDE}
CHCl3 + Cl = CO + HCl + 3.000Cl + HO2 :      GCARR(3.77E-12, 0.0E+00, -1011.0);   {2017/09/22; Sherwen2016b;TS,JAS,SDE}
Cl + HCOOH = HCl + CO2 + H2O :               GCARR(2.00E-13, 0.0E+00, 0.0);       {2017/09/22; Sherwen2016b;TS,JAS,SDE}
Cl + MO2 = ClO + CH2O + HO2 :                GCARR(1.60E-10, 0.0E+00, 0.0);       {2017/09/22; Sherwen2016b;TS,JAS,SDE}
Cl + MP = HCl + MO2 :                        GCARR(5.7E-11, 0.0E+00, 0.0);        {2017/09/22; Sherwen2016b;TS,JAS,SDE}
Cl + C2H6 = HCl + ETO2 :                     GCARR(7.2E-11, 0.0E+00, -70.0);      {2017/09/22; Sherwen2016b;TS,JAS,SDE}
Cl + ETO2 = ClO + HO2 + ALD2 :               GCARR(7.4E-11, 0.0E+00, 0.0);        {2017/09/22; Sherwen2016b;TS,JAS,SDE}
Cl + MOH = HCl + CH2O + HO2 :                GCARR(5.5E-11, 0.0E+00, 0.0);        {2017/09/22; Sherwen2016b;TS,JAS,SDE}
Cl + EOH = HCl + ALD2 :                      GCARR(9.6E-11, 0.0E+00, 0.0);        {2017/09/22; Sherwen2016b;TS,JAS,SDE}
Cl + ACTA = HCl + MO2 + CO2 :                GCARR(2.8E-14, 0.0E+00, 0.0);        {2017/09/22; Sherwen2016b;TS,JAS,SDE}
Cl + C3H8 = HCl + B3O2 :                     GCARR(6.54E-11, 0.0E+00, 60.0);      {2017/09/22; Sherwen2016b;TS,JAS,SDE}
Cl + C3H8 = HCl + A3O2 :                     GCARR(8.12E-11, 0.0E+00, -90.0);     {2017/09/22; Sherwen2016b;TS,JAS,SDE}
Cl + ACET = HCl + ATO2 :                     GCARR(7.70E-11, 0.0E+00, -1000.0);   {2017/09/22; Sherwen2016b;TS,JAS,SDE}
Cl + ISOP = HCl + RIO2 :                     GCARR(7.60E-11, 0.0E+00, 500.0);     {2017/09/22; Sherwen2016b;TS,JAS,SDE}
Cl + ALK4 = HCl + R4O2 :                     GCARR(2.05E-10, 0.0E+00, 0.0);       {2017/09/22; Sherwen2016b;TS,JAS,SDE}
Cl + PRPE {+M} = HCl + PO2 {+M} :            GCJPLPR(4.00E-28, 0.0E+00, 0.0, 2.8E-10, 0.0E0, 0.0, 0.6, 0.0, 0.0); {2017/09/22; Sherwen2016b;TS,JAS,SDE}
Br + PRPE = HBr + PO2 :                      GCARR(3.60E-12, 0.0E+00, 0.0);       {2017/09/22; Sherwen2016b;TS,JAS,SDE}
I + NO {+M} = INO {+M} :                     GCJPLPR(1.80E-32, 1.0E+00, 0.0, 1.77E-11, 0.0, 0.0, 0.6, 0.0, 0.0); {2017/09/22; Sherwen2016b;TS,JAS,SDE}
INO + INO = I2 + 2.000NO :                   GCARR(8.40E-11, 0.0E+00, -2620.0);   {2017/09/22; Sherwen2016b;TS,JAS,SDE}
I + NO2 {+M} = IONO {+M} :                   GCJPLPR(3.00E-31, 1.0E+00, 0.0, 6.6E-11, 0.0, 0.0, 0.63, 0.0, 0.0); {2017/09/22; Sherwen2016b;TS,JAS,SDE}
IONO {+M} = I + NO2 {+M} :                   GCARR(9.94E+17, 0.0E+00, -11859.0);  {2017/09/22; Sherwen2016b;TS,JAS,SDE}
IONO + IONO = I2 + 2.000NO2 :                GCARR(2.90E-11, 0.0E+00, -2600.0);   {2017/09/22; Sherwen2016b;TS,JAS,SDE}
I2 + NO3 = I + IONO2 :                       GCARR(1.50E-12, 0.0E+00, 0.0);       {2017/09/22; Sherwen2016b;TS,JAS,SDE}
IO + NO2 {+M} = IONO2 {+M} :                 GCJPLPR(7.50E-31, 3.5E+00, 0.0, 7.6E-12, 1.5E0, 0.0, 0.6, 0.0, 0.0); {2017/09/22; Sherwen2016b;TS,JAS,SDE}
IONO2 {+M} = IO + NO2 {+M} :                 GCARR(2.10E+15, 0.0E+00, -13670.0);  {2017/09/22; Sherwen2016b;TS,JAS,SDE}
IONO2 + I = I2 + NO3 :                       GCARR(9.10E-11, 0.0E+00, -146.0);    {2017/09/22; Sherwen2016b;TS,JAS,SDE}
I + BrO = IO + Br :                          GCARR(1.20E-11, 0.0E+00, 0.0);       {2017/09/22; Sherwen2016b;TS,JAS,SDE}
IO + BrO = Br + I + O2 :                     GCARR(3.00E-12, 0.0E+00, 510.0);     {2017/09/22; Sherwen2016b;TS,JAS,SDE}
IO + BrO = Br + OIO :                        GCARR(1.20E-11, 0.0E+00, 510.0);     {2017/09/22; Sherwen2016b;TS,JAS,SDE}
IO + OIO {+M} = I2O3 {+M} :                  GCARR(1.00E-10, 0.0E+00, 0.0);       {2017/09/22; Sherwen2016b;TS,JAS,SDE}
OIO + OIO = I2O4 :                           GCARR(1.50E-10, 0.0E+00, 0.0);       {2017/09/22; Sherwen2016b;TS,JAS,SDE}
I2O4 {+M} = 2.000OIO {+M} :                  GCARR(3.80E-02, 0.0E+00, 0.0);       {2017/09/22; Sherwen2016b;TS,JAS,SDE}
OIO + NO = IO + NO2 :                        GCARR(1.10E-12, 0.0E+00, 542.0);     {2017/09/22; Sherwen2016b;TS,JAS,SDE}
IO + ClO = I + OClO :                        GCARR(5.10E-12, 0.0E+00, 280.0);     {2017/09/22; Sherwen2016b;TS,JAS,SDE}
IO + ClO = I + Cl + O2 :                     GCARR(2.81E-12, 0.0E+00, 280.0);     {2017/09/22; Sherwen2016b;TS,JAS,SDE}
IO + ClO = ICl + O2 :                        GCARR(1.02E-12, 0.0E+00, 280.0);     {2017/09/22; Sherwen2016b;TS,JAS,SDE}
I + O3 = IO + O2 :                           GCARR(2.30E-11, 0.0E+00, -870.0);    {2017/09/22; Sherwen2016b;TS,JAS,SDE}
I + HO2 = HI + O2 :                          GCARR(1.50E-11, 0.0E+00, -1090.0);   {2017/09/22; Sherwen2016b;TS,JAS,SDE}
I2 + OH = HOI + I :                          GCARR(1.80E-10, 0.0E+00, 0.0);       {2017/09/22; Sherwen2016b;TS,JAS,SDE}
HI + OH = I + H2O :                          GCARR(3.00E-11, 0.0E+00, 0.0);       {2017/09/22; Sherwen2016b;TS,JAS,SDE}
HOI + OH = IO + H2O :                        GCARR(5.00E-12, 0.0E+00, 0.0);       {2017/09/22; Sherwen2016b;TS,JAS,SDE}
IO + HO2 = HOI + O2 :                        GCARR(1.30E-11, 0.0E+00, 570.0);     {2017/09/22; Sherwen2016b;TS,JAS,SDE}
IO + NO = I + NO2 :                          GCARR(9.10E-12, 0.0E+00, 240.0);     {2017/09/22; Sherwen2016b;TS,JAS,SDE}
IO + IO = I + OIO :                          GCARR(6.00E-12, 0.0E+00, 500.0);     {2017/09/22; Sherwen2016b;TS,JAS,SDE}
IO + IO {+M} = I2O2 {+M} :                   GCARR(9.00E-12, 0.0E+00, 500.0);     {2017/09/22; Sherwen2016b;TS,JAS,SDE}
I2O2 {+M} = 2.000IO {+M} :                   GCARR(1.00E+12, 0.0E+00, -9770.0);   {2017/09/22; Sherwen2016b;TS,JAS,SDE}
I2O2 {+M} = OIO + I {+M} :                   GCARR(2.50E+14, 0.0E+00, -9770.0);   {2017/09/22; Sherwen2016b;TS,JAS,SDE}
CH3I + OH = H2O + I + MO2 :                  GCARR(2.90E-12, 0.0E+00, -1100.0);   {2017/09/22; Sherwen2016b;TS,JAS,SDE}
HC5 + OH = HC5OO :                           GCARR(3.35E-11, 0.0E+00, 380.0);     {2013/03/22; Paulot2009; FP,EAM,JMAO,MJE}
HC5OO + NO = NO2 + 0.216GLYX + 0.234MGLY +
 0.234GLYC + 0.216HAC + 0.290DHMOB +
 0.170MOBA + 0.090RCHO + HO2 + 0.090CO :     GC_RO2NO('B', 2.70E-12, 0.0E+00, 350.0, 5.0, 0.0, 0.0); {2013/03/22; Paulot2009; FP,EAM,JMAO,MJE}
HC5OO + NO = HNO3 :                          GC_RO2NO('A', 2.70E-12, 0.0E+00, 350.0, 5.0, 0.0, 0.0); {2013/03/22; Paulot2009; FP,EAM,JMAO,MJE}
HC5OO + HO2 = 0.100IAP + 0.900OH +
 0.900MGLY + 0.900GLYC + 0.900HO2 :          GC_RO2HO2(2.91E-13, 0.0E+00, 1300.0, 5.0, 0.0, 0.0); {2013/03/22; Paulot2009; FP,EAM,JMAO,MJE}
ISOPND + OH = 0.100IEPOXD +
 0.900ISOPNDO2 + 0.100NO2 :                  GCARR(1.20E-11, 0.0E+00, 652.0);     {2017/07/14; Jacobs2014,Lee2014; KRT,JAF,CCM,EAM,KHB,RHS}
ISOPNB + OH = 0.900ISOPNBO2 +
 0.067IEPOXA + 0.033IEPOXB + 0.100NO2 :      GCARR(2.40E-12, 0.0E+00, 745.0);     {2017/07/14; Jacobs2014,Lee2014; KRT,JAF,CCM,EAM,KHB,RHS}
ISOPNDO2 + NO = 0.019MACRN + 0.057HCOOH +
 0.270HAC + 0.210ETHLN + 0.150CH2O +
 0.790NO2 + 0.300GLYC + 0.300PROPNN +
 0.610HO2 + 0.270DHDN + 0.075MVKN +
 0.057ISOPNDO2 :                             GCARR(2.40E-12, 0.0E+00, 360.0);     {2017/07/14; Lee2014; KRT,JAF,CCM,EAM,KHB,RHS}
ISOPNDO2 + HO2 = 0.010MACRN + 0.200HAC +
 0.200ETHLN +  0.070CH2O + 0.230GLYC +
 0.230PROPNN + 0.500HO2 + 0.500OH +
 0.060MVKN + 0.500ISNP :                     GCARR(8.70E-14, 0.0E+00, 1650.0);    {2017/07/14; Lee2014; KRT,JAF,CCM,EAM,KHB,RHS}
ISOPNBO2 + NO = 0.090GLYC + 0.090HAC +
 0.700CH2O + 0.880NO2 + 0.440MACRN +
 0.690HO2 + 0.260MVKN + 0.210DHDN :          GCARR(2.40E-12, 0.0E+00, 360.0);     {2017/07/14; Lee2014; KRT,JAF,CCM,EAM,KHB,RHS}
ISOPNBO2 + HO2 = 0.060GLYC + 0.060HAC +
 0.440CH2O + 0.280MACRN + 0.160MVKN +
 0.060NO2 + 0.440HO2 + 0.500OH + 0.510ISNP : GCARR(8.70E-14, 0.0E+00, 1650.0);    {2017/07/14; Lee2014; KRT,JAF,CCM,EAM,KHB,RHS}
ISNP + OH = 0.612OH + 0.612R4N1 +
 0.193ISOPNBO2 + 0.193ISOPNDO2 :             GCARR(4.75E-12, 0.0E+00, 200.0);     {2013/03/22; Paulot2009; FP,EAM,JMAO,MJE}
MVKN + OH = 0.650HCOOH + NO3 + 0.650MGLY +
 0.350CH2O + 0.350PYAC :                     GCARR(4.40E-13, 0.0E+00, 380.0);     {2017/06/15, Marais2016, EAM}
MACRN + OH = MACRNO2 :                       GCARR(8.79E-13, 0.0E+00, 380.0);     {2017/06/15, Marais2016, EAM}
MACRNO2 + NO = 0.080ACTA + 0.080CH2O +
 0.150NO3 + 0.070HCOOH + 0.070MGLY +
 0.850HAC + 0.850NO2 + 0.930CO2 + NO2 :      GCARR(2.70E-12, 0.0E+00, 350.0);     {2013/03/22; Paulot2009; FP,EAM,JMAO,MJE}
MACRNO2 + HO2 = 0.080ACTA + 0.080CH2O +
 0.150NO3 + 0.070HCOOH + 0.070MGLY +
 0.850HAC + 0.850NO2 + 0.930CO2 + OH :       GC_RO2HO2(2.91E-13, 0.0E+00, 1300.0, 4.0, 0.0, 0.0); {2013/03/22; Paulot2009; FP,EAM,JMAO,MJE}
MACRNO2 + NO2 {+M} = PMNN :                  GCJPLPR(9.00E-28, 8.9E+00, 0.0, 7.7E-12, 0.2, 0.0, 0.6, 0.0, 0.0); {2013/03/22; Paulot2009; FP,EAM,JMAO,MJE}
PMNN = MACRNO2 + NO2 :                       GCJPLEQ(9.00E-29, 0.0E+00, 14000.0, 9.00E-28, 8.9E0, 0.0, 7.7E-12, 0.2, 0., 0.6, 0., 0.); {2013/03/22; Paulot2009; FP,EAM,JMAO,MJE}
DHMOB + OH = 1.500CO + HO2 + 0.500HAC +
 0.500MEK :                                  GCARR(2.52E-12, 0.0E+00, 410.0);     {2013/03/22; Paulot2009; FP,EAM,JMAO,MJE}
DIBOO + NO = HO2 + NO2 + 0.520GLYC +
 0.520MGLY + 0.480HAC + 0.480GLYX :          GC_RO2NO('B', 2.70E-12, 0.0E+00, 350.0, 5.0, 0.0, 0.0); {2013/03/22; Paulot2009; FP,EAM,JMAO,MJE}
DIBOO + NO = HNO3 :                          GC_RO2NO('A', 2.70E-12, 0.0E+00, 350.0, 5.0, 0.0, 0.0); {2013/03/22; Paulot2009; FP,EAM,JMAO,MJE}
DIBOO + HO2 = 0.150HO2 + 0.150OH +
 0.078GLYC + 0.078MGLY + 0.072HAC +
 0.072GLYX + 0.850R4P :                      GC_RO2HO2(2.91E-13, 0.0E+00, 1300.0, 5.0, 0.0, 0.0); {2013/03/22; Paulot2009; FP,EAM,JMAO,MJE}
MOBA + OH = MOBAOO :                         GCARR(2.79E-11, 0.0E+00, 380.0);
MOBAOO + NO = RCHO + CO2 + HO2 + NO2 :       GC_RO2NO('B', 2.70E-12, 0.0E+00, 350.0, 5.0, 0.0, 0.0); {2013/03/22; Paulot2009; FP,EAM,JMAO,MJE}
MOBAOO + NO = HNO3 :                         GC_RO2NO('A', 2.70E-12, 0.0E+00, 350.0, 5.0, 0.0, 0.0); {2013/03/22; Paulot2009; FP,EAM,JMAO,MJE}
MOBAOO + HO2 = 0.500OH + 0.500HO2 +
 0.500RCHO + 0.500CO2 + 0.500R4P :           GC_RO2HO2(2.91E-13, 0.0E+00, 1300.0, 4.0, 0.0, 0.0); {2013/03/22; Paulot2009; FP,EAM,JMAO,MJE}
MOBA + O3 = OH + HO2 + CO2 + MEK :           GCARR(2.00E-17, 0.0E+00, 0.0);       {2013/03/22; Paulot2009; FP,EAM,JMAO,MJE}
ETHLN + OH = CH2O + CO2 + NO2 :              GCARR(2.40E-12, 0.0E+00, 0.0);       {2017/06/15, Marais2016, EAM}
PROPNN + OH = NO2 + MGLY :                   GCARR(6.70E-13, 0.0E+00, 0.0);       {2017/07/14; MCMv3.3; KRT,JAF,CCM,EAM,KHB,RHS}
CH2OO + CO = CH2O :                          GCARR(1.20E-15, 0.0E+00, 0.0);       {2015/09/25; Millet2015; DBM,EAM}
CH2OO + NO = CH2O + NO2 :                    GCARR(1.00E-14, 0.0E+00, 0.0);       {2015/09/25; Millet2015; DBM,EAM}
CH2OO + NO2 = CH2O + NO3 :                   GCARR(1.00E-15, 0.0E+00, 0.0);       {2015/09/25; Millet2015; DBM,EAM}
CH2OO + SO2 = CH2O + SO4 :                   GCARR(7.00E-14, 0.0E+00, 0.0);       {2015/09/25; Millet2015; DBM,EAM}
CH2OO + H2O = CH2O + H2O2 :                  GCARR(6.00E-18, 0.0E+00, 0.0);       {2015/09/25; Millet2015; DBM,EAM}
CH2OO + H2O = HCOOH :                        GCARR(1.00E-17, 0.0E+00, 0.0);       {2015/09/25; Millet2015; DBM,EAM}
MACROO + CO = MACR :                         GCARR(1.20E-15, 0.0E+00, 0.0);       {2015/09/25; Millet2015; DBM,EAM}
MACROO + NO = MACR + NO2 :                   GCARR(1.00E-14, 0.0E+00, 0.0);       {2015/09/25; Millet2015; DBM,EAM}
MACROO + NO2 = MACR + NO3 :                  GCARR(1.00E-15, 0.0E+00, 0.0);       {2015/09/25; Millet2015; DBM,EAM}
MACROO + SO2 = MACR + SO4 :                  GCARR(7.00E-14, 0.0E+00, 0.0);       {2015/09/25; Millet2015; DBM,EAM}
MACROO + H2O = MRP :                         GCARR(1.00E-17, 0.0E+00, 0.0);       {2015/09/25; Millet2015; DBM,EAM}
MACROO + H2O = MACR + H2O2 :                 GCARR(6.00E-18, 0.0E+00, 0.0);       {2015/09/25; Millet2015; DBM,EAM}
MVKOO + CO = MVK :                           GCARR(1.20E-15, 0.0E+00, 0.0);       {2015/09/25; Millet2015; DBM,EAM}
MVKOO + NO = MVK + NO2 :                     GCARR(1.00E-14, 0.0E+00, 0.0);       {2015/09/25; Millet2015; DBM,EAM}
MVKOO + NO2 = MVK + NO3 :                    GCARR(1.00E-15, 0.0E+00, 0.0);       {2015/09/25; Millet2015; DBM,EAM}
MVKOO + SO2 = MVK + SO4 :                    GCARR(7.00E-14, 0.0E+00, 0.0);       {2015/09/25; Millet2015; DBM,EAM}
MVKOO + H2O = MVK + H2O2 :                   GCARR(6.00E-18, 0.0E+00, 0.0);       {2015/09/25; Millet2015; DBM,EAM}
MGLYOO + CO = MGLY :                         GCARR(1.20E-15, 0.0E+00, 0.0);       {2015/09/25; Millet2015; DBM,EAM}
MGLYOO + NO = MGLY + NO2 :                   GCARR(1.00E-14, 0.0E+00, 0.0);       {2015/09/25; Millet2015; DBM,EAM}
MGLYOO + NO2 = MGLY + NO3 :                  GCARR(1.00E-15, 0.0E+00, 0.0);       {2015/09/25; Millet2015; DBM,EAM}
MGLYOO + SO2 = MGLY + SO4 :                  GCARR(7.00E-14, 0.0E+00, 0.0);       {2015/09/25; Millet2015; DBM,EAM}
MGLYOO + H2O = MGLY + H2O2 :                 GCARR(6.00E-18, 0.0E+00, 0.0);       {2015/09/25; Millet2015; DBM,EAM}
MGLOO + CO = MGLY :                          GCARR(1.20E-15, 0.0E+00, 0.0);       {2015/09/25; Millet2015; DBM,EAM}
MGLOO + NO = MGLY + NO2 :                    GCARR(1.00E-14, 0.0E+00, 0.0);       {2015/09/25; Millet2015; DBM,EAM}
MGLOO + NO2 = MGLY + NO3 :                   GCARR(1.00E-15, 0.0E+00, 0.0);       {2015/09/25; Millet2015; DBM,EAM}
MGLOO + SO2 = MGLY + SO4 :                   GCARR(7.00E-14, 0.0E+00, 0.0);       {2015/09/25; Millet2015; DBM,EAM}
[...]
HPC52O2 + NO = GLYX + MGLY + NO2 + OH :      GCARR(2.70E-12, 0.0E+00, 360.0);     {2017/07/14; Jenkin2015; KRT,JAF,CCM,EAM,KHB,RHS}
DHPCARP + HO2 = RCOOH :                      GCARR(2.05E-13, 0.0E+00, 1300.0);    {2017/07/14; Jenkin2015; KRT,JAF,CCM,EAM,KHB,RHS}
HPC52O2 + HO2 = RCOOH :                      GCARR(2.05E-13, 0.0E+00, 1300.0);    {2017/07/14; Jenkin2015; KRT,JAF,CCM,EAM,KHB,RHS}
DHPCARP = RCOOH + CO + OH :                  GCARR(2.90E+07, 0.0E+00, -5300.0);   {2017/07/14; Crounse2012; KRT,JAF,CCM,EAM,KHB,RHS}
DHPCARP = DHDC :                             GCARR(1.28E+07, 0.0E+00, -5300.0);   {2017/07/14; Crounse2012; KRT,JAF,CCM,EAM,KHB,RHS}
//
// Heterogeneous reactions
//
HO2 = O2 :                                   HET(ind_HO2,1);                      {2013/03/22; Paulot2009; FP,EAM,JMAO,MJE}
NO2 = 0.500HNO3 + 0.500HNO2 :                HET(ind_NO2,1);
NO3 = HNO3 :                                 HET(ind_NO3,1);
//
// NOTE: N2O5 + H2O reaction rate is still calculated as first-order,
// based on Evans and Jacob [2005]. However this is converted to a 
// second-order rate in gckpp_HetRates.F90 by dividing by [H2O],
// allowing the reaction to be listed here as second order 
// (N2O5 + H2O -> 2HNO3) and thereby permitting chemical loss
// of H2O in the stratosphere.
//    -- Seb Eastham (14 May 2018)
//
N2O5 + H2O = 2.000HNO3 :                     HET(ind_N2O5,1);
N2O5 + HCl = ClNO2 + HNO3 :                  HET(ind_N2O5,2);                     {2017/09/22; Sherwen2016b;TS,JAS,SDE}
N2O5 = ClNO2 + HNO3 :                        HET(ind_N2O5,3);                     {2017/09/22; Sherwen2016b;TS,JAS,SDE}
BrNO3 + H2O = HOBr + HNO3 :                  HET(ind_BrNO3,1);                    {2014/02/03; Eastham2014; SDE}
BrNO3 + HCl = BrCl + HNO3 :                  HET(ind_BrNO3,2);                    {2014/02/03; Eastham2014; SDE}
ClNO3 + H2O = HOCl + HNO3 :                  HET(ind_ClNO3,1);                    {2014/02/03; Eastham2014; SDE}
ClNO3 + HCl = Cl2 + HNO3 :                   HET(ind_ClNO3,2);                    {2014/02/03; Eastham2014; SDE}
ClNO3 + HBr = BrCl + HNO3 :                  HET(ind_ClNO3,3);                    {2014/02/03; Eastham2014; SDE}
ClNO3 + BrSALA = BrCl + HNO3 :               HET(ind_ClNO3,4);                    {2017/09/22; Sherwen2016b;TS,JAS,SDE}
ClNO3 + BrSALC = BrCl + HNO3 :               HET(ind_ClNO3,5);                    {2017/09/22; Sherwen2016b;TS,JAS,SDE}
HOCl + HCl = Cl2 + H2O :                     HET(ind_HOCl,1);                     {2014/02/03; Eastham2014; SDE}
HOCl + HBr = BrCl + H2O :                    HET(ind_HOCl,2);                     {2014/02/03; Eastham2014; SDE}
HOBr + HBr = Br2 + H2O :                     HET(ind_HOBr,1);                     {2017/09/22; Sherwen2016b;TS,JAS,SDE}
HOBr + HCl = BrCl + H2O :                    HET(ind_HOBr,2);                     {2017/09/22; Sherwen2016b;TS,JAS,SDE}
HOBr = BrCl + H2O :                          HET(ind_HOBr,3);                     {2017/09/22; Sherwen2016b;TS,JAS,SDE}
HOBr + BrSALA = Br2 :                        HET(ind_HOBr,4);                     {2017/09/22; Sherwen2016b;TS,JAS,SDE}
HOBr + BrSALC = Br2 :                        HET(ind_HOBr,5);                     {2017/09/22; Sherwen2016b;TS,JAS,SDE}
HOBr = SO4H1 + HBr :                         HET(ind_HOBr,6);                     {2017/11/15; Chen2017; QJC}
HOBr = SO4H2 + HBr :                         HET(ind_HOBr,7);                     {2017/11/15; Chen2017; QJC}
HCl = O2 :                                   HET(ind_HCl,1);                      {2017/09/22; Sherwen2016b;TS,JAS,SDE}
HCl = O2 :                                   HET(ind_HCl,2);                      {2017/09/22; Sherwen2016b;TS,JAS,SDE}
O3 + HBr = HOBr :                            HET(ind_O3,1);                       {2017/09/22; Sherwen2016b;TS,JAS,SDE}
O3 + BrSALA = HOBr :                         HET(ind_O3,2);                       {2017/09/22; Sherwen2016b;TS,JAS,SDE}
O3 + BrSALC = HOBr :                         HET(ind_O3,3);                       {2017/09/22; Sherwen2016b;TS,JAS,SDE}
HBr = BrSALA :                               HET(ind_HBr,1);                      {2017/09/22; Sherwen2016b;TS,JAS,SDE}
HBr = BrSALC :                               HET(ind_HBr,2);                      {2017/09/22; Sherwen2016b;TS,JAS,SDE}
HI = AERI :                                  HET(ind_HI,1);                       {2017/09/22; Sherwen2016b;TS,JAS,SDE}
HI = ISALA :                                 HET(ind_HI,2);                       {2017/09/22; Sherwen2016b;TS,JAS,SDE}
HI = ISALC :                                 HET(ind_HI,3);                       {2017/09/22; Sherwen2016b;TS,JAS,SDE}
HOI = ISALA :                                HET(ind_HOI,1);                      {2017/09/22; Sherwen2016b;TS,JAS,SDE}
HOI = ISALC :                                HET(ind_HOI,2);                      {2017/09/22; Sherwen2016b;TS,JAS,SDE}
I2O2 = 2.000AERI :                           HET(ind_I2O2,1);                     {2017/09/22; Sherwen2016b;TS,JAS,SDE}
I2O2 = 2.000ISALA :                          HET(ind_I2O2,2);                     {2017/09/22; Sherwen2016b;TS,JAS,SDE}
I2O2 = 2.000ISALC :                          HET(ind_I2O2,3);                     {2017/09/22; Sherwen2016b;TS,JAS,SDE}
I2O3 = 2.000AERI :                           HET(ind_I2O3,1);                     {2017/09/22; Sherwen2016b;TS,JAS,SDE}
I2O3 = 2.000ISALA :                          HET(ind_I2O3,2);                     {2017/09/22; Sherwen2016b;TS,JAS,SDE}
I2O3 = 2.000ISALC :                          HET(ind_I2O3,3);                     {2017/09/22; Sherwen2016b;TS,JAS,SDE}
I2O4 = 2.000AERI :                           HET(ind_I2O4,1);                     {2017/09/22; Sherwen2016b;TS,JAS,SDE}
I2O4 = 2.000ISALA :                          HET(ind_I2O4,2);                     {2017/09/22; Sherwen2016b;TS,JAS,SDE}
I2O4 = 2.000ISALC :                          HET(ind_I2O4,3);                     {2017/09/22; Sherwen2016b;TS,JAS,SDE}
IONO = ISALA :                               HET(ind_IONO,1);                     {2017/09/22; Sherwen2016b;TS,JAS,SDE}
IONO = ISALC :                               HET(ind_IONO,2);                     {2017/09/22; Sherwen2016b;TS,JAS,SDE}
IONO2 = ISALA :                              HET(ind_IONO2,1);                    {2017/09/22; Sherwen2016b;TS,JAS,SDE}
IONO2 = ISALC :                              HET(ind_IONO2,2);                    {2017/09/22; Sherwen2016b;TS,JAS,SDE}
IONO = 0.850ICl + 0.150IBr + HNO2 :          HET(ind_IONO,3);                     {2017/09/22; Sherwen2016b;TS,JAS,SDE}
IONO2 = 0.850ICl + 0.150IBr + HNO3 :         HET(ind_IONO2,3);                    {2017/09/22; Sherwen2016b;TS,JAS,SDE}
HOI = 0.850ICl + 0.150IBr :                  HET(ind_HOI,3);                      {2017/09/22; Sherwen2016b;TS,JAS,SDE}
GLYX = SOAGX :                               HET(ind_GLYX,1);                     {2017/06/15; Marais2016, EAM}
MGLY = SOAMG :                               HET(ind_MGLY,1);                     {2017/06/15; Marais2016, EAM}
IEPOXA = SOAIE :                             HET(ind_IEPOXA,1);                   {2017/06/15; Marais2016, EAM}
IEPOXB = SOAIE :                             HET(ind_IEPOXB,1);                   {2017/06/15; Marais2016, EAM}
IEPOXD = SOAIE :                             HET(ind_IEPOXD,1);                   {2017/06/15; Marais2016, EAM}
IMAE = SOAME :                               HET(ind_IMAE,1);                     {2017/06/15; Marais2016, EAM}
LVOC = LVOCOA :                              HET(ind_LVOC,1);                     {2017/06/15; Marais2016, EAM}
ISN1OG = ISN1OA :                            HET(ind_ISN1OG,1);                   {2017/06/15; Marais2016, EAM}
ISOPND = IONITA :                            HET(ind_ISOPND,1);                   {2017/06/15; Marais2016, EAM}
ISOPNB = IONITA :                            HET(ind_ISOPNB,1);                   {2017/06/15; Marais2016, EAM}
MACRN = IONITA :                             HET(ind_MACRN,1);                    {2017/06/15; Marais2016, EAM}
MVKN = IONITA :                              HET(ind_MVKN,1);                     {2017/06/15; Marais2016, EAM}
R4N2 = IONITA :                              HET(ind_R4N2,1);                     {2017/06/15; Marais2016, EAM}
DHDN = IONITA :                              HET(ind_DHDN,1);                     {2017/06/15; Marais2016, EAM}
MONITS = MONITA :                            HET(ind_MONITS,1);                   {2017/07/14; Fisher2016; KRT,JAF,CCM,EAM,KHB,RHS}
MONITU = MONITA :                            HET(ind_MONITU,1);                   {2017/07/14; Fisher2016; KRT,JAF,CCM,EAM,KHB,RHS}
HONIT = MONITA :                             HET(ind_HONIT,1);                    {2017/07/14; Fisher2016; KRT,JAF,CCM,EAM,KHB,RHS}
//
// Photolysis reactions
//
O3 + hv = O + O2 :                           PHOTOL(2);      {2014/02/03; Eastham2014; SDE}
O3 + hv = O1D + O2 :                         PHOTOL(3);      {2014/02/03; Eastham2014; SDE}
O2 + hv = 2.000O :                           PHOTOL(1);      {2014/02/03; Eastham2014; SDE}
NO2 + hv = NO + O :                          PHOTOL(11);     {2014/02/03; Eastham2014; SDE}
H2O2 + hv = OH + OH :                        PHOTOL(9);
MP + hv = CH2O + HO2 + OH :                  PHOTOL(10);
CH2O + hv = HO2 + H + CO :                   PHOTOL(7);      {2014/02/03; Eastham2014; SDE}
CH2O + hv = H2 + CO :                        PHOTOL(8);
HNO3 + hv = OH + NO2 :                       PHOTOL(16);
HNO2 + hv = OH + NO :                        PHOTOL(15);
HNO4 + hv = OH + NO3 :                       PHOTOL(17);
HNO4 + hv = HO2 + NO2 :                      PHOTOL(18);
NO3 + hv = NO2 + O :                         PHOTOL(12);     {2014/02/03; Eastham2014; SDE}
NO3 + hv = NO + O2 :                         PHOTOL(13);
N2O5 + hv = NO3 + NO2 :                      PHOTOL(14);
ALD2 + hv = 0.880MO2 + HO2 + 0.880CO +
 0.120MCO3 :                                 PHOTOL(61);     {2014/12/19; FAST-JX v7.0 fix; JMAO}
ALD2 + hv = CH4 + CO :                       PHOTOL(62);
PAN + hv = 0.700MCO3 + 0.700NO2 +
 0.300MO2 + 0.300NO3 :                       PHOTOL(59);     {2014/05/23; Eastham2014; JMAO,SDE}
RCHO + hv = ETO2 + HO2 + CO :                PHOTOL(70);
ACET + hv = MCO3 + MO2 :                     PHOTOL(76);
ACET + hv = 2.000MO2 + CO :                  PHOTOL(77);
MEK + hv = 0.850MCO3 + 0.850ETO2 +
 0.150MO2 + 0.150RCO3 :                      PHOTOL(69);
GLYC + hv = 0.900CH2O + 1.730HO2 + CO +
 0.070OH + 0.100MOH :                        PHOTOL(68);     {2014/05/23; Eastham2014; JMAO,SDE}
GLYX + hv = 2.000HO2 + 2.000CO :             PHOTOL(72);
GLYX + hv = H2 + 2.000CO :                   PHOTOL(73);
GLYX + hv = CH2O + CO :                      PHOTOL(74);
MGLY + hv = MCO3 + CO + HO2 :                PHOTOL(71);
MVK + hv = PRPE + CO :                       PHOTOL(63);
MVK + hv = MCO3 + CH2O + CO + HO2 :          PHOTOL(64);
MVK + hv = MO2 + RCO3 :                      PHOTOL(65);     {2014/05/23; Eastham2014; JMAO,SDE}
MACR + hv = CO + HO2 + CH2O + MCO3 :         PHOTOL(66);     {2014/05/23; Eastham2014; JMAO,SDE}
HAC + hv = MCO3 + CH2O + HO2 :               PHOTOL(75);
INPN + hv = OH + HO2 + RCHO + NO2 :          PHOTOL(78);
PRPN + hv = OH + HO2 + RCHO + NO2 :          PHOTOL(79);
ETP + hv = OH + HO2 + ALD2 :                 PHOTOL(80);
RA3P + hv = OH + HO2 + RCHO :                PHOTOL(81);
RB3P + hv = OH + HO2 + ACET :                PHOTOL(82);
R4P + hv = OH + HO2 + RCHO :                 PHOTOL(83);
PP + hv = OH + HO2 + ALD2 + CH2O :           PHOTOL(84);
RP + hv = OH + HO2 + ALD2 :                  PHOTOL(85);
RIPA + hv = 0.985OH + 0.985HO2 +
 0.710CH2O + 0.425MVK + 0.285MACR +
 0.275HC5 + 0.005LVOC :                      PHOTOL(86);     {2017/07/14; KRT,JAF,CCM,EAM,KHB,RHS}
RIPB + hv = 0.985OH + 0.985HO2 +
 0.710CH2O + 0.425MVK + 0.285MACR +
 0.275HC5 + 0.005LVOC :                      PHOTOL(86);     {2017/07/14; KRT,JAF,CCM,EAM,KHB,RHS}
RIPD + hv = 0.985OH + 0.985HO2 +
 0.710CH2O + 0.425MVK + 0.285MACR +
 0.275HC5 + 0.005LVOC :                      PHOTOL(86);     {2017/06/15; KRT,JAF,CCM,EAM,KHB,RHS}
IAP + hv = OH + HO2 + 0.670CO + 0.190H2 +
 0.360HAC + 0.260GLYC + 0.580MGLY :          PHOTOL(87);
ISNP + hv = OH + HO2 + RCHO + NO2 :          PHOTOL(88);
VRP + hv = OH + 0.300HO2 + 0.300CH2O +
 0.700MCO3 + 0.700GLYC + 0.300MGLY :         PHOTOL(89);
MRP + hv = OH + HO2 + HAC + 0.500CO +
 0.500CH2O :                                 PHOTOL(90);
MAOP + hv = OH + CH2O + MCO3 :               PHOTOL(91);
R4N2 + hv = NO2 + 0.320ACET + 0.190MEK +
 0.180MO2 + 0.270HO2 + 0.320ALD2 +
 0.130RCHO + 0.050A3O2 + 0.180B3O2 +
 0.320ETO2 :                                 PHOTOL(98);
MAP + hv = OH + MO2 :                        PHOTOL(99);
MACRN + hv = NO2 + HAC + MGLY +
 0.500CH2O + HO2 + 0.500CO :                 PHOTOL(92);     {2013/03/22; Paulot2009; FP,EAM,JMAO,MJE}
MVKN + hv = GLYC + NO2 + MCO3 :              PHOTOL(93);     {2013/03/22; Paulot2009; FP,EAM,JMAO,MJE}
ISOPNB + hv = HC5 + NO2 + HO2 :              PHOTOL(94);     {2013/03/22; Paulot2009; FP,EAM,JMAO,MJE}
Br2 + hv = 2.000Br :                         PHOTOL(23);     {2012/06/07; Parrella2012; JPP}
BrO + hv = Br + O :                          PHOTOL(28);     {2014/02/03; Eastham2014; SDE}
HOBr + hv = Br + OH :                        PHOTOL(32);     {2012/06/07; Parrella2012; JPP}
BrNO3 + hv = Br + NO3 :                      PHOTOL(29);     {2012/06/07; Parrella2012; JPP}
BrNO3 + hv = BrO + NO2 :                     PHOTOL(30);     {2012/06/07; Parrella2012; JPP}
BrNO2 + hv = Br + NO2 :                      PHOTOL(31);     {2012/06/07; Parrella2012; JPP}
CHBr3 + hv = 3.000Br :                       PHOTOL(56);     {2012/06/07; Parrella2012; JPP}
CH2Br2 + hv = 2.000Br :                      PHOTOL(55);     {2014/02/03; Eastham2014; SDE}
CH3Br + hv = MO2 + Br :                      PHOTOL(50);     {2014/02/03; Eastham2014; SDE}
CH3Cl + hv = MO2 + Cl :                      PHOTOL(43);     {2014/02/03; Eastham2014; SDE}
CH2Cl2 + hv = 2.000Cl :                      PHOTOL(45);     {2017/09/22; Sherwen2016b;TS,JAS,SDE}
BrCl + hv = Br + Cl :                        PHOTOL(33);     {2014/02/03; Eastham2014; SDE}
Cl2 + hv = 2.000Cl :                         PHOTOL(22);     {2014/02/03; Eastham2014; SDE}
ClO + hv = Cl + O :                          PHOTOL(27);     {2014/02/03; Eastham2014; SDE}
OClO + hv = ClO + O :                        PHOTOL(25);     {2014/02/03; Eastham2014; SDE}
Cl2O2 + hv = Cl + ClOO :                     PHOTOL(26);     {2014/02/03; Eastham2014; SDE}
ClNO2 + hv = Cl + NO2 :                      PHOTOL(21);     {2014/02/03; Eastham2014; SDE}
ClNO3 + hv = Cl + NO3 :                      PHOTOL(19);     {2014/02/03; Eastham2014; SDE}
ClNO3 + hv = ClO + NO2 :                     PHOTOL(20);     {2014/02/03; Eastham2014; SDE}
HOCl + hv = Cl + OH :                        PHOTOL(24);     {2014/02/03; Eastham2014; SDE}
CH3CCl3 + hv = 3.000Cl :                     PHOTOL(44);     {2014/02/03; Eastham2014; SDE}
CCl4 + hv = 4.000Cl :                        PHOTOL(42);     {2014/02/03; Eastham2014; SDE}
CFC11 + hv = 3.000Cl :                       PHOTOL(37);     {2014/02/03; Eastham2014; SDE}
CFC12 + hv = 2.000Cl :                       PHOTOL(38);     {2014/02/03; Eastham2014; SDE}
CFC113 + hv = 3.000Cl :                      PHOTOL(39);     {2014/02/03; Eastham2014; SDE}
CFC114 + hv = 2.000Cl :                      PHOTOL(40);     {2014/02/03; Eastham2014; SDE}
CFC115 + hv = Cl :                           PHOTOL(41);     {2014/02/03; Eastham2014; SDE}
HCFC123 + hv = 2.000Cl :                     PHOTOL(47);     {2014/02/03; Eastham2014; SDE}
HCFC141b + hv = 2.000Cl :                    PHOTOL(48);     {2014/02/03; Eastham2014; SDE}
HCFC142b + hv = 2.000Cl :                    PHOTOL(49);     {2014/02/03; Eastham2014; SDE}
HCFC22 + hv = 2.000Cl :                      PHOTOL(46);     {2014/02/03; Eastham2014; SDE}
H1301 + hv = Br :                            PHOTOL(53);     {2014/02/03; Eastham2014; SDE}
H1211 + hv = Cl + Br :                       PHOTOL(51);     {2014/02/03; Eastham2014; SDE}
H2402 + hv = 2.000Br :                       PHOTOL(54);     {2014/02/03; Eastham2014; SDE}
ClOO + hv = Cl + O2 :                        PHOTOL(102);    {2014/02/03; Eastham2014; SDE}
I2 + hv = 2.000I :                           PHOTOL(115);    {2017/09/22; Sherwen2016b;TS,JAS,SDE}
HOI + hv = I + OH :                          PHOTOL(116);    {2017/09/22; Sherwen2016b;TS,JAS,SDE}
IO + hv = I + O :                            PHOTOL(117);    {2017/09/22; Sherwen2016b;TS,JAS,SDE}
OIO + hv = I + O2 :                          PHOTOL(118);    {2017/09/22; Sherwen2016b;TS,JAS,SDE}
INO + hv = I + NO :                          PHOTOL(119);    {2017/09/22; Sherwen2016b;TS,JAS,SDE}
IONO + hv = I + NO2 :                        PHOTOL(120);    {2017/09/22; Sherwen2016b;TS,JAS,SDE}
IONO2 + hv = I + NO3 :                       PHOTOL(121);    {2017/09/22; Sherwen2016b;TS,JAS,SDE}
I2O2 + hv = I + OIO :                        PHOTOL(122);    {2017/09/22; Sherwen2016b;TS,JAS,SDE}
CH3I + hv = I :                              PHOTOL(123);    {2017/09/22; Sherwen2016b;TS,JAS,SDE}
CH2I2 + hv = 2.000I :                        PHOTOL(124);    {2017/09/22; Sherwen2016b;TS,JAS,SDE}
CH2ICl + hv = I + Cl :                       PHOTOL(125);    {2017/09/22; Sherwen2016b;TS,JAS,SDE}
CH2IBr + hv = I + Br :                       PHOTOL(126);    {2017/09/22; Sherwen2016b;TS,JAS,SDE}
I2O4 + hv = 2.000OIO :                       PHOTOL(127);    {2017/09/22; Sherwen2016b;TS,JAS,SDE}
I2O3 + hv = OIO + IO :                       PHOTOL(128);    {2017/09/22; Sherwen2016b;TS,JAS,SDE}
IBr + hv = I + Br :                          PHOTOL(129);    {2017/09/22; Sherwen2016b;TS,JAS,SDE}
ICl + hv = I + Cl :                          PHOTOL(130);    {2017/09/22; Sherwen2016b;TS,JAS,SDE}
MPN + hv = CH2O + NO3 + HO2 :                PHOTOL(104);    {2012/02/12; Browne2011; ECB}
MPN + hv = MO2 + NO2 :                       PHOTOL(105);    {2012/02/12; Browne2011; ECB}
ISOPND + hv = HC5 + NO2 + HO2 :              PHOTOL(95);     {2013/03/22; Paulot2009; FP,EAM,JMAO,MJE}
PROPNN + hv = CH2O + NO2 + CO + MO2 :        PHOTOL(96);     {2013/03/22; Paulot2009; FP,EAM,JMAO,MJE}
ATOOH + hv = OH + CH2O + MCO3 :              PHOTOL(97);     {2013/03/22; Paulot2009; FP,EAM,JMAO,MJE}
N2O + hv = N2 + O1D :                        PHOTOL(36);     {2014/02/03; Eastham2014; SDE}
OCS + hv = SO2 + CO :                        PHOTOL(34);     {2014/02/03; Eastham2014; SDE}
SO4 + hv = SO2 + 2.000OH :                   PHOTOL(100);    {2014/02/03; Eastham2014; SDE}
NO + hv = O + N :                            PHOTOL(6);      {2014/02/03; Eastham2014; SDE}
PIP + hv = RCHO + OH + HO2 :                 PHOTOL(106);    {2017/03/23; Fischer2014; EVF}
IPMN + hv = 0.600IMAO3 + 0.600NO2 +
 0.400CO2 + 0.400CH2O + 0.400MCO3 +
 0.400NO3 :                                  PHOTOL(107);    {2017/06/15; Marais2016; EAM}
ETHLN + hv = NO2 + CH2O + CO + HO2 :         PHOTOL(108);    {2017/06/15; Marais2016; EAM}
DHDC + hv = MGLY + GLYX + 2.000OH :          PHOTOL(109);    {2017/07/14; Crounse2012; KRT,JAF,CCM,EAM,KHB,RHS}
HPALD + hv = 0.500MGLY + 0.390HAC +
 0.110GLYC + 0.110MCO3 + 1.890CO +
 0.890HO2 + 2.000OH :                        PHOTOL(110);    {2017/07/14; Peeters2014; KRT,JAF,CCM,EAM,KHB,RHS}
ISN1 + hv = NO2 + HO2 + 0.500GLYC +
 0.250GLYX + 0.250MGLY + CH2O + 0.500HAC :   PHOTOL(111);    {2017/07/14; Muller2014; KRT,JAF,CCM,EAM,KHB,RHS}
MONITS + hv = MEK + NO2 :                    PHOTOL(112);    {2017/07/14; Browne2014; KRT,JAF,CCM,EAM,KHB,RHS}
MONITU + hv = RCHO + NO2 :                   PHOTOL(113);    {2017/07/14; Browne2014; KRT,JAF,CCM,EAM,KHB,RHS}
HONIT + hv = HAC + NO2 :                     PHOTOL(114);    {2017/07/14; Browne2014; KRT,JAF,CCM,EAM,KHB,RHS}
