{ Custom.eqn

-------------------------------------------------------------------------------
DESCRIPTION
-------------------------------------------------------------------------------

GEOS-Chem KPP standard chemistry file containing species and equations for the
NOx-Ox-HC-Aer-Br-Cl-I mechanism with the Universal tropospheric-stratospheric
Chemistry eXtension (UCX). This mechanism applied from the surface to the
stratopause.

===============================================================================
FILE HISTORY
===============================================================================

v11-01g (Sep 2016)
----------------------

 (1) Initial version for FlexChem (MSL,MJE,MPS,EWL)

v11-02a (Mar 2017)
----------------------

 (1) Update rate constants based on JPL 15-10 (MJE,BHH)
     - See wiki.geos-chem.org/Updates_in_JPL_Publication_15-10
 (2) Fix ALK4 lumping issue in R4O2 + NO reaction (BHH)
 (3) PAN chemistry updates (EVF)
     - Added several new NMVOCs. The extended mechanism includes ethanol,
       benzene, toluene and ethylbenzene (lumped), xylenes and trimethyl
       benzenes (lumped), and monoterpenes (lumped).
     - Treatment of monoterpene oxidation is adopted from theRACM2 chemical
       mechanism (Goliff et al., 2013), lumping terpenes with one double bond
       (alpha-pinene, beta-pinene, sabinene, delta-3-carene) into one proxy.

v11-02c (Jul 2017)
----------------------

 (1) Add isoprene SOA updates from Marais2016 (EAM,MPS)
 (2) Update isoprene and monoterpene chemistry (KRT,JAF,CCM,EAM,KHB,RHS)
      - Based on Travis2016, Fisher2016, ChanMiller2017, Marais2016
      - Add Bates2014 epoxide scheme
      - Update isoprene nitrate chemistry following Lee2014
      - Add Muller2014 fast photolysis of carbonyl nitrates
      - Add HNO2 chemistry from Lee2014
      - Updated product yields and rx rate for RIO2+RIO2 (Xie2013)
 (3) Add fixes for carbon-creating reactions (SAS,BHH,MJE)

v11-02d (Sep 2017)
----------------------

 (1) Add halogen chemistry from Sherwen2016b/Sherwen2017 (TS,JAS,SDE,LZHU)
 (2) Add HOBr + S(IV) from Chen2017 (QJC)

12.6.0 (Jul 2019)
-----------------------

 (1) Add photolysis of NITs (off by default) (TMS, PK)
 (2) Aerosol heterogeneous uptake for NOx (CDH)

12.7.0 (Dec 2019)
-----------------------
 (1) Add MENO3, ETNO3, PRNO3 chemistry from Fisher2018 (JAF)
 (2) Remove old MNO3 (same as MENO3 but not actually used (JAF)
 (3) Add "OTHRO2" that is equivalent to ETO2 but is not derived from C2H6
     oxidation. Necessary to prevent overestimates of ETNO3. All ETO2
     reactions are duplicated except ETO2+NO->ETNO3 channel (JAF)
 (4) Add MOH as active species (XC, DBM)

12.8.0 (Feb 2020)
----------------------
 (1) Update isoprene chemistry from Bates2019 (KHB)

===============================================================================
DEVELOPERS (alphabetical order; add your name!)
===============================================================================

BHH : Barron Henderson;        barronh@gmail.com
CCM : Christopher Chan Miller; cmiller@fas.harvard.edu
CDH : Christopher Holmes;      cdholmes@fsu.edu
DBM : Dylan Millet             dbm@umn.edu
EAM : Eloise Marais;           e.a.marais@bham.ac.uk
ECB : Ellie Browne             eleanor.browne@colorado.edu
EVF : Emily Fischer;           evf@rams.colostate.edu
EWL : Lizzie Lundgren;         elundgren@seas.harvard.edu
FP  : Fabien Paulot;           fabien.paulot@noaa.gov
HOTP: Havala Pye;              pye.havala@epa.gov
JAF : Jenny Fisher;            jennyf@uow.edu.au
JAS : Johan Schmidt;           johanalbrechtschmidt@gmail.com
JMAO: Jingqiu Mao;             jmao2@alaska.edu
JPP : Justin Parrella;         justin.parrella@gmail.com
KHB : Kelvin Bates;            kelvin@caltech.edu
KRT : Katie Travis;            ktravis@fas.harvard.edu
LZHU: Lei Zhu;                 leizhu@fas.harvard.edu
MJE : Mat Evans;               mat.evans@york.ac.uk
MPS : Melissa Sulprizio;       mpayer@seas.harvard.edu
MSL : Mike Long;               mlong@seas.harvard.edu
PK  : Prasad Kasibhatla;       psk9@duke.edu
QJC : Qianjie Chen;            chenqjie@uw.edu
RHS : Rebecca Schwantes;       rschwant@caltech.edu
SAS : Sarah Safieddine;        sarahsaf@mit.edu
SDE : Sebastian Eastham;       seastham@seas.harvard.edu
TMS : Tomas Sherwen;           tomas.sherwen@york.ac.uk
XC  : Xin Chen;                chen3849@umn.edu

===============================================================================
REFERENCES (alphabetical order)
===============================================================================
* Atkinson2003: Atkinson and Arey, Chem. Rev., doi:10.1021/cr0206420, 2003.
* Bates2014:    Bates et al., J. Phys. Chem A, 118, doi:10.1021/jp4107958, 2014.
* Bates2019:    Bates and Jacob, Atmos. Chem. Phys., doi:10.5194/acp-19-9613-2019, 2019.
* Browne2011:   Browne et al., Atmos. Chem. Phys., doi:10.5194/acp-11-4209-2011, 2011.
* Browne2014:   Browne et al., Atmos. Chem. Phys., doi:10.5194/acp-14-1225-2014, 2014.
* Chen2017:     Chen et al., Geophys. Res. Lett., doi:10.1002/2017GL073812, 2017.
* Crounse2012:  Crounse et al., J. Phys. Chem. A, doi:10.1021/jp211560u, 2012.
* Eastham2014:  Eastham et al., Atmos. Env., doi:10.1016/j.atmosenv.2014.02.001, 2014.
* Fischer2014:  Fischer et al., Atmos. Chem. Phys., doi:10.5194/acp-14-2679-2014, 2014.
* Fisher2016:   Fisher et al., Atmos. Chem. Phys., doi:10.5194/acp-16-5969-2016, 2016.
* Fisher2018:   Fisher et al., J. Geophys. Res., doi:10.1029/2018JD029046, 2018.
* Fry2014:      Fry et al. Environ. Sci. Technol., doi:10.1021/es502204x, 2014.
* Gill2002:     Gill and Hites, J. Phys. Chem. A, doi:10.1021/jp013532, 2002.
* Goliff2013:   Goliff et al., Atmos. Environ., doi:10.1016/j.atmosenv.2012.11.038, 2013.
* Jacobs2014:   Jacobs et al., Atmos. Chem. Phys., doi:10.5194/acp-14-8933-2014, 2014.
* Jenkin2015:   Jenkin et al., Atmos. Chem. Phys., doi:10.5194/acp-15-11433-2015, 2015.
* Kasibhatla2018: Kasibhatla et al., Atmos. Chem. Phys., doi:10.5194/acp-18-11185-2018, 2018
* JPL 10-6:     JPL Publication 10-6, https://jpldataeval.jpl.nasa.gov/previous_evaluations.html, 2011.
* JPL 15-10:    JPL Publication 15-10, https://jpldataeval.jpl.nasa.gov, 2015.
* Lee2014:      Lee et al., J. Phys. Chem. A, doi:10.1021/jp4107603, 2014.
* Marais2016:   Marais et al., Atmos. Chem. Phys, doi:10.5194/acp-16-1603-2016, 2016.
* Miller2017:   Miller et al., Atmos. Chem. Phys. Discuss., doi:10.5194/acp-2016-1042, 2017.
* Millet2015:   Millet et al., Atmos. Chem. Phys., doi:10.5194/acp-15-6283-2015, 2015.
* Muller2014:   Muller et al., Atmos. Chem. Phys., doi:10.5194/acp-14-2497-2014, 2014.
* Parrella2012: Parrella et al. Atmos. Chem. Phys, doi:10.5194/acp-12-6723-2012, 2012.
* Paulot2009:   Paulot et al., Atmos. Chem. Phys., doi:10.5194/acp-9-1479-2009, 2009a and
                Paulot et al., Science, doi:10.1126/science.1172910, 2009b.
* Peeters2010:  Peeters and Muller, Phys. Chem. Chem. Phys., doi:10.1039/C0CP00811G, 2010.
* Peeters2014:  Peeters et al., J. Phys. Chem. A, doi:10.1021/jp5033146, 2014.
* Pye2010:      Pye et al., Atmos. Chem. Phys., doi:10.5194/acp-10-11261-2010, 2010.
* Roberts1992:  Roberts and Bertman, Int. J. Chem. Kinet., doi:10.1002/kin.550240307, 1992.
* Sherwen2016b: Sherwen et al., Atmos. Chem. Phys., doi:10.5194/acp-16-12239-2016, 2016b.
* Sherwen2017:  Sherwen et al., Faraday Discuss., doi:10.1039/C7FD00026J, 2017.
* StClair2016:  St. Clair et al., J. Phys. Chem. A, doi:10.1021/acs.jpca.5b065322016, 2016.
* Travis2016:   Travis et al., Atmos. Chem. Phys., doi:10.5194/acp-16-13561-2016, 2016.
* Wolfe2012:    Wolfe et al., Phys. Chem. Chem. Phys., doi: 10.1039/C2CP40388A, 2012.
* Xie2013:      Xie et al., Atmos. Chem. Phys., doi:10.5194/acp-13-8439-2013, 2013.

===============================================================================
NOTES
===============================================================================

Comment format is
 Species   - Molecular formula; full name
 Equations - Date modified; Reference; Developer initials
}

#include atoms

#DEFVAR

A3O2       = IGNORE; {CH3CH2CH2OO; Primary RO2 from C3H8}
ACET       = IGNORE; {CH3C(O)CH3; Acetone}
ACTA       = IGNORE; {CH3C(O)OH; Acetic acid}
AERI       = IGNORE; {I; Dissolved iodine}
ALD2       = IGNORE; {CH3CHO; Acetaldehyde}
ALK4       = IGNORE; {>= C4 alkanes}
ATO2       = IGNORE; {CH3C(O)CH2O2; RO2 from acetone}
ATOOH      = IGNORE; {CH3C(O)CH2OOH; ATO2 peroxide}
B3O2       = IGNORE; {CH3CH(OO)CH3; Secondary RO2 from C3H8}
BENZ       = IGNORE; {C6H6; Benzene}
Br         = IGNORE; {Br; Atomic bromine}
Br2        = IGNORE; {Br2; Molecular bromine}
BrCl       = IGNORE; {BrCl; Bromine chloride}
BrO        = IGNORE; {BrO; Bromine monoxide}
BRO2       = IGNORE; {C6H5O2 ; Peroxy radical from BENZ oxidation}
BrNO2      = IGNORE; {BrNO2; Nitryl bromide}
BrNO3      = IGNORE; {BrNO3; Bromine nitrate}
BrSALA     = IGNORE; {Br; Fine sea salt bromine}
BrSALC     = IGNORE; {Br; Course sea salt bromine}
C2H4       = IGNORE; {C2H4; Ethylene}
C2H6       = IGNORE; {C2H6; Ethane}
C3H8       = IGNORE; {C3H8; Propane}
C4HVP1     = IGNORE; {C4 hydroxy-vinyl-peroxy radicals from HPALDs}
C4HVP2     = IGNORE; {C4 hydroxy-vinyl-peroxy radicals from HPALDs}
CCl4       = IGNORE; {CCl4; Carbon tetrachloride}
CFC11      = IGNORE; {CCl3F ; CFC-11, R-11, Freon 11}
CFC12      = IGNORE; {CCl2F2; CFC-12, R-12, Freon 12}
CFC113     = IGNORE; {C2Cl3F3; CFC-113, Freon 113}
CFC114     = IGNORE; {C2Cl2F4; CFC-114, Freon 114}
CFC115     = IGNORE; {C2ClF5; CFC-115, Freon 115}
CH2Br2     = IGNORE; {CH3Br2; Dibromomethane}
CH2Cl2     = IGNORE; {CH2Cl2; Dichloromethane}
CH2I2      = IGNORE; {CH2I2; Diiodomethane}
CH2ICl     = IGNORE; {CH2ICl; Chloroiodomethane}
CH2IBr     = IGNORE; {CH2IBr; Bromoiodomethane}
CH2O       = IGNORE; {CH2O; Formaldehyde}
CH2OO      = IGNORE; {CH2OO; Criegee intermediate}
CH3Br      = IGNORE; {CH3Br; Methyl bromide}
CH3CHOO    = IGNORE; {CH3CHOO; Criegee intermediate}
CH3CCl3    = IGNORE; {CH3CCl3; Methyl chloroform}
CH3Cl      = IGNORE; {CH3Cl; Chloromethane}
CH3I       = IGNORE; {CH3I; Methyl iodide}
CH4        = IGNORE; {CH4; Methane}
CHBr3      = IGNORE; {CHBr3; Tribromethane}
CHCl3      = IGNORE; {CHCl3; Chloroform}
Cl         = IGNORE; {Cl; Atomic chlorine}
Cl2        = IGNORE; {Cl2; Molecular chlorine}
Cl2O2      = IGNORE; {Cl2O2; Dichlorine dioxide}
ClNO2      = IGNORE; {ClNO2; Nitryl chloride}
ClNO3      = IGNORE; {ClONO2; Chlorine nitrate}
ClO        = IGNORE; {ClO; Chlorine monoxide}
ClOO       = IGNORE; {ClOO; Chlorine dioxide}
CO         = IGNORE; {CO; Carbon monoxide}
CO2        = IGNORE; {CO2; Carbon dioxide}
DMS        = IGNORE; {(CH3)2S; Dimethylsulfide}
EOH        = IGNORE; {C2H5OH; Ethanol}
ETHLN      = IGNORE; {CHOCH2ONO2; Ethanal nitrate}
ETNO3      = IGNORE; {C2H5ONO2; Ethyl nitrate}
ETO2       = IGNORE; {CH3CH2OO; Ethylperoxy radical}
ETP        = IGNORE; {CH3CH2OOH; Ethylhydroperoxide}
GLYC       = IGNORE; {HOCH2CHO; Glycoaldehyde}
GLYX       = IGNORE; {CHOCHO; Glyoxal}
H          = IGNORE; {H; Atomic hydrogen}
H1211      = IGNORE; {CBrClF2; H-1211}
H1301      = IGNORE; {CBrF3; H-1301}
H2402      = IGNORE; {C2Br2F4; H-2402}
H2O        = IGNORE; {H2O; Water vapor}
H2O2       = IGNORE; {H2O2; Hydrogen peroxide}
HAC        = IGNORE; {HOCH2C(O)CH3; Hydroxyacetone}
HBr        = IGNORE; {HBr; Hypobromic acid}
HC5A       = IGNORE; {C5H8O2; Isoprene-4,1-hydroxyaldehyde}
HCFC123    = IGNORE; {C2HCl2F3; HCFC-123, R-123, Freon 123}
HCFC141b   = IGNORE; {C(CH3)Cl2F; HCFC-141b, R-141b, Freon 141b}
HCFC142b   = IGNORE; {C(CH3)ClF2; HCFC-142b, R-142b, Freon 142b}
HCFC22     = IGNORE; {CHClF2 ; HCFC-22, R-22, Freon 22}
HCl        = IGNORE; {HCl; Hydrochloric acid}
HCOOH      = IGNORE; {HCOOH; Formic acid}
HI         = IGNORE; {HI; Hydrogen iodide}
HMHP       = IGNORE; {HOCH2OOH; Hydroxymethyl hydroperoxide}
HMML       = IGNORE; {C4H6O3; Hydroxymethyl-methyl-a-lactone}
HNO2       = IGNORE; {HONO; Nitrous acid}
HNO3       = IGNORE; {HNO3; Nitric acid}
HNO4       = IGNORE; {HNO4; Pernitric acid}
HO2        = IGNORE; {HO2; Hydroperoxyl radical}
HOBr       = IGNORE; {HOBr; Hypobromous acid}
HOCl       = IGNORE; {HOCl; Hypochlorous acid}
HOI        = IGNORE; {HOI; Hypoiodous acid}
HONIT      = IGNORE; {2nd gen monoterpene organic nitrate}
HPALD1     = IGNORE; {O=CHC(CH3)=CHCH2OOH; d-4,1-C5-hydroperoxyaldehyde}
HPALD1OO   = IGNORE; {peroxy radicals from HPALD1}
HPALD2     = IGNORE; {HOOCH2C(CH3)=CHCH=O; d-1,4-C5-hydroperoxyaldehyde}
HPALD2OO   = IGNORE; {peroxy radicals from HPALD2}
HPALD3     = IGNORE; {O=CHC(CH3)OOHCH=CH2; b-2,1-C5-hydroperoxyaldehyde}
HPALD4     = IGNORE; {CH2=C(CH3)CHOOHCH=O; b-3,4-C5-hydroperoxyaldehyde}
HPETHNL    = IGNORE; {CHOCH2OOH; hydroperoxyethanal}
I          = IGNORE; {I; Atmoic iodine}
I2         = IGNORE; {I2; Molecular iodine}
I2O2       = IGNORE; {I2O2; Diiodine dioxide}
I2O3       = IGNORE; {I2O3; Diiodine trioxide}
I2O4       = IGNORE; {I2O4; Diiodine tetraoxide}
IBr        = IGNORE; {IBr; Iodine monobromide}
ICHE       = IGNORE; {C5H8O3; Isoprene hydroxy-carbonyl-epoxides}
ICHOO      = IGNORE; {peroxy radical from IEPOXD}
ICl        = IGNORE; {ICl; Iodine monochloride}
ICN        = IGNORE; {C5H7NO4; Lumped isoprene carbonyl nitrates}
ICNOO      = IGNORE; {peroxy radicals from ICN}
ICPDH      = IGNORE; {C5H10O5; Isoprene dihydroxy hydroperoxycarbonyl}
IDC        = IGNORE; {C5H6O2; Lumped isoprene dicarbonyls}
IDCHP      = IGNORE; {C5H8O5; Isoprene dicarbonyl hydroxy dihydroperoxide}
IDHDP      = IGNORE; {C5H12O6; Isoprene dihydroxy dihydroperoxide}
IDHNBOO    = IGNORE; {peroxy radicals from INPB}
IDHNDOO1   = IGNORE; {peroxy radicals from INPD}
IDHNDOO2   = IGNORE; {peroxy radicals from INPD}
IDHPE      = IGNORE; {C5H10O5; Isoprene dihydroxy hydroperoxy epoxide}
IDN        = IGNORE; {C5H8N2O6; Lumped isoprene dinitrates}
IDNOO      = IGNORE; {peroxy radicals from IDN}
IEPOXA     = IGNORE; {C5H10O3; trans-Beta isoprene epoxydiol}
IEPOXAOO   = IGNORE; {peroxy radical from trans-Beta isoprene epoxydiol}
IEPOXB     = IGNORE; {C5H10O3; cis-Beta isoprene epoxydiol}
IEPOXBOO   = IGNORE; {peroxy radical from cis-Beta isoprene epoxydiol}
IEPOXD     = IGNORE; {C5H10O3; Delta isoprene epoxydiol}
IHN1       = IGNORE; {C5H9NO4; Isoprene-d-4-hydroxy-1-nitrate}
IHN2       = IGNORE; {C5H9NO4; Isoprene-b-1-hydroxy-2-nitrate}
IHN3       = IGNORE; {C5H9NO4; Isoprene-b-4-hydroxy-3-nitrate}
IHN4       = IGNORE; {C5H9NO4; Isoprene-d-1-hydroxy-4-nitrate}
IHOO1      = IGNORE; {peroxy radical from OH addition to isoprene at C1}
IHOO4      = IGNORE; {peroxy radical from OH addition to isoprene at C4}
IHPNBOO    = IGNORE; {peroxy radicals from INPB}
IHPNDOO    = IGNORE; {peroxy radicals from INPD}
IHPOO1     = IGNORE; {peroxy radical from ISOPOOH}
IHPOO2     = IGNORE; {peroxy radical from ISOPOOH}
IHPOO3     = IGNORE; {peroxy radical from ISOPOOH}
INA        = IGNORE; {alkoxy radical from INO2D}
INDIOL     = IGNORE; {Generic aerosol phase organonitrate hydrolysis product}
INO        = IGNORE; {INO; Nitrosyl iodide}
INO2B      = IGNORE; {beta-peroxy radicals from isoprene + NO3}
INO2D      = IGNORE; {delta-peroxy radicals from isoprene + NO3}
INPB       = IGNORE; {C5H9NO5; Lumped isoprene beta-hydroperoxy nitrates}
INPD       = IGNORE; {C5H9NO5; Lumped isoprene delta-hydroperoxy nitrates}
IO         = IGNORE; {IO; Iodine monoxide}
IONITA     = IGNORE; {Aerosol-phase organic nitrate from isoprene precursors}
IONO       = IGNORE; {IONO; Nitryl iodide}
IONO2      = IGNORE; {IONO2; Iodine nitrate}
IPRNO3     = IGNORE; {C3H8ONO2; Isopropyl nitrate}
ISALA      = IGNORE; {I; Fine sea salt iodine}
ISALC      = IGNORE; {I; Coarse sea salt iodine}
ISOP       = IGNORE; {CH2=C(CH3)CH=CH2; Isoprene}
ISOPNOO1   = IGNORE; {peroxy radicals from IHN2}
ISOPNOO2   = IGNORE; {peroxy radicals from IHN3}
ITCN       = IGNORE; {C5H9NO7; Lumped tetrafunctional isoprene carbonyl-nitrates}
ITHN       = IGNORE; {C5H11NO7; Lumped tetrafunctional isoprene hydroxynitrates}
KO2        = IGNORE; {RO2 from >3 ketones}
LBRO2H     = IGNORE; {Dummy spc to track oxidation of BRO2 by HO2}
LBRO2N     = IGNORE; {Dummy spc to track oxidation of BRO2 by NO}
LIMO       = IGNORE; {C10H16; Limonene}
LIMO2      = IGNORE; {RO2 from LIMO}
LISOPOH    = IGNORE; {Dummy spc to track oxidation of ISOP by OH}
LISOPNO3   = IGNORE; {Dummy spc to track oxidation of ISOP by NO3}
LTRO2H     = IGNORE; {Dummy spc to track oxidation of TRO2 by HO2}
LTRO2N     = IGNORE; {Dummy spc to track oxidation of TRO2 by NO}
LVOC       = IGNORE; {C5H14O5; Gas-phase low-volatility non-IEPOX product of ISOPOOH (RIP) oxidation}
LVOCOA     = IGNORE; {C5H14O5; Aerosol-phase low-volatility non-IEPOX product of ISOPOOH (RIP) oxidation}
LXRO2H     = IGNORE; {Dummy spc to track oxidation of XRO2 by HO2}
LXRO2N     = IGNORE; {Dummy spc to track oxidation of XRO2 by NO}
MACR       = IGNORE; {CH2=C(CH3)CHO; Methacrolein}
MACR1OO    = IGNORE; {peroxyacyl radical from MACR + OH}
MACR1OOH   = IGNORE; {CH2=C(CH3)C(O)OOH; Peracid from MACR}
MACRNO2    = IGNORE; {Product of MACRN+OH}
MAP        = IGNORE; {CH3C(O)OOH; Peroxyacetic acid}
MCO3       = IGNORE; {CH3C(O)OO; Peroxyacetyl radical}
MCRDH      = IGNORE; {C4H8O3; Dihydroxy-MACR}
MCRENOL    = IGNORE; {C4H6O2; Lumped enols from MVK/MACR}
MCRHN      = IGNORE; {HOCH2C(ONO2)(CH3)CHO; Hydroxynitrate from MACR}
MCRHNB     = IGNORE; {O2NOCH2C(OH)(CH3)CHO; Hydroxynitrate from MACR}
MCRHP      = IGNORE; {HOCH2C(OOH)(CH3)CHO; Hydroxy-hydroperoxy-MACR}
MCROHOO    = IGNORE; {peroxy radical from MACR + OH}
MEK        = IGNORE; {RC(O)R; Methyl ethyl ketone}
MENO3      = IGNORE; {CH3ONO2; methyl nitrate}
MGLY       = IGNORE; {CH3COCHO; Methylglyoxal}
MO2        = IGNORE; {CH3O2; Methylperoxy radical}
MOH        = IGNORE; {CH3OH; Methanol}
MONITA     = IGNORE; {Aerosol-phase organic nitrate from monoterpene precursors}
MONITS     = IGNORE; {Saturated 1st gen monoterpene organic nitrate}
MONITU     = IGNORE; {Unsaturated 1st gen monoterpene organic nitrate}
MP         = IGNORE; {CH3OOH; Methylhydroperoxide}
MPAN       = IGNORE; {CH2=C(CH3)C(O)OONO2; Peroxymethacroyl nitrate (PMN)}
MPN        = IGNORE; {CH3O2NO2; Methyl peroxy nitrate}
MSA        = IGNORE; {CH4SO3; Methanesulfonic acid}
MTPA       = IGNORE; {Lumped monoterpenes: a-pinene, b-pinene, sabinene, carene}
MTPO       = IGNORE; {Other monoterpenes: Terpinene, terpinolene, myrcene, ocimene, other monoterpenes}
MVK        = IGNORE; {CH2=CHC(=O)CH3; Methyl vinyl ketone}
MVKDH      = IGNORE; {HOCH2CH2OHC(O)CH3; Dihydroxy-MVK}
MVKHC      = IGNORE; {C4H6O3; MVK hydroxy-carbonyl}
MVKHCB     = IGNORE; {C4H6O3; MVK hydroxy-carbonyl}
MVKHP      = IGNORE; {C4H8O4; MVK hydroxy-hydroperoxide}
MVKN       = IGNORE; {HOCH2CH(ONO2)C(=O)CH3; Hydroxynitrate from MVK}
MVKOHOO    = IGNORE; {peroxy radical from MVK + OH}
MVKPC      = IGNORE; {OCHCH(OOH)C(O)CH3; MVK hydroperoxy-carbonyl}
N          = IGNORE; {N; Atomic nitrogen}
N2O        = IGNORE; {N2O; Nitrous oxide}
N2O5       = IGNORE; {N2O5; Dinitrogen pentoxide}
NITs       = IGNORE; {NITs; Inorganic nitrates on surface of sea salt}
NIT        = IGNORE; {NITs; Inorganic nitrates}
NO         = IGNORE; {NO; Nitric oxide}
NO2        = IGNORE; {NO2; Nitrogen dioxide}
NO3        = IGNORE; {NO3; Nitrate radical}
NPRNO3     = IGNORE; {C3H8ONO2; n-propyl nitrate}
O          = IGNORE; {O(3P); Ground state atomic oxygen}
O1D        = IGNORE; {O(1D); Excited atomic oxygen}
O3         = IGNORE; {O3; Ozone}
OClO       = IGNORE; {OClO; Chlorine dioxide}
OCS        = IGNORE; {COS; Carbonyl sulfide}
OH         = IGNORE; {OH; Hydroxyl radical}
OIO        = IGNORE; {OIO; Iodine dioxide}
OLND       = IGNORE; {Monoterpene-derived NO3-alkene adduct}
OLNN       = IGNORE; {Monoterpene-derived NO3 adduct}
OTHRO2     = IGNORE; {Other C2 RO2 not from C2H6 oxidation}
PAN        = IGNORE; {CH3C(O)OONO2; Peroxyacetylnitrate}
PIO2       = IGNORE; {RO2 from MTPA}
PIP        = IGNORE; {Peroxides from MTPA}
PO2        = IGNORE; {HOCH2CH(OO)CH3; RO2 from propene}
PP         = IGNORE; {HOCH2CH(OOH)CH3; Peroxide from PO2}
PPN        = IGNORE; {CH3CH2C(O)OONO2; Peroxypropionylnitrate}
PRN1       = IGNORE; {O2NOCH2CH(OO)CH3; RO2 from propene + NO3}
PRPE       = IGNORE; {C3H6; >= C3 alkenes}
PRPN       = IGNORE; {O2NOCH2CH(OOH)CH3; Peroxide from PRN1}
PROPNN     = IGNORE; {CH3C(=O)CH2ONO2; Propanone nitrate}
PYAC       = IGNORE; {CH3COCOOH; Pyruvic acid}
R4N1       = IGNORE; {RO2 from R4N2}
R4N2       = IGNORE; {RO2NO; >= C4 alkylnitrates}
R4O2       = IGNORE; {RO2 from ALK4}
R4P        = IGNORE; {CH3CH2CH2CH2OOH; Peroxide from R4O2}
RA3P       = IGNORE; {CH3CH2CH2OOH; Peroxide from A3O2}
RB3P       = IGNORE; {CH3CH(OOH)CH3; Peroxide from B3O2}
RCHO       = IGNORE; {CH3CH2CHO; >= C3 aldehydes}
RCO3       = IGNORE; {CH3CH2C(O)OO; Peroxypropionyl radical}
RIPA       = IGNORE; {HOCH2C(OOH)(CH3)CH=CH2; 1,2-ISOPOOH}
RIPB       = IGNORE; {HOCH2C(OOH)(CH3)CH=CH2; 4,3-ISOPOOH}
RIPC       = IGNORE; {C5H10O3; d(1,4)-ISOPOOH}
RIPD       = IGNORE; {C5H10O3; d(4,1)-ISOPOOH}
ROH        = IGNORE; {C3H7OH; > C2 alcohols}
RP         = IGNORE; {CH3CH2C(O)OOH; Peroxide from RCO3}
SO2        = IGNORE; {SO2; Sulfur dioxide}
SO4        = IGNORE; {SO4; Sulfate}
SO4H1      = IGNORE; {SO4; Sulfate produced by HOBr}
SO4H2      = IGNORE; {SO4; Sulfate produced by HOBr}
SOAGX      = IGNORE; {CHOCHO; Aerosol-phase glyoxal}
SOAIE      = IGNORE; {C5H10O3; Aerosol-phase IEPOX}
TOLU       = IGNORE; {C7H8; Toluene}
TRO2       = IGNORE; {Peroxy radical from TOLU oxidation}
XYLE       = IGNORE; {C8H10; Xylene}
XRO2       = IGNORE; {Peroxy radical from XYLE oxidation}

#DEFFIX

H2         = IGNORE; {H2; Molecular hydrogen}
N2         = IGNORE; {N2; Molecular nitrogen}
NH2        = IGNORE; {NH2; Ammonia radical}
NH3        = IGNORE; {NH3; Ammonia}
O2         = IGNORE; {O2; Molecular oxygen}
RCOOH      = IGNORE; {C2H5C(O)OH; > C2 organic acids}

#EQUATIONS
//
// Gas-phase reactions
//
O3 + NO = NO2 + O2 :                         GCARR(3.00E-12, 0.0E+00, -1500.0);
O3 + OH = HO2 + O2 :                         GCARR(1.70E-12, 0.0E+00, -940.0);
O3 + HO2 = OH + O2 + O2 :                    GCARR(1.00E-14, 0.0E+00, -490.0);
O3 + NO2 = O2 + NO3 :                        GCARR(1.20E-13, 0.0E+00, -2450.0);
O3 + MO2 = CH2O + HO2 + O2 :                 GCARR(2.90E-16, 0.0E+00, -1000.0);   {2014/02/03; Eastham2014; SDE}
OH + OH = H2O + O :                          GCARR(1.80E-12, 0.0E+00, 0.0);       {2014/02/03; Eastham2014; SDE}
OH + OH {+M} = H2O2 :                        GCJPLPR(6.90E-31, 1.0E+00, 0.0, 2.6E-11, 0.0, 0.0, 0.6, 0.0, 0.0);
OH + HO2 = H2O + O2 :                        GCARR(4.80E-11, 0.0E+00, 250.0);
OH + H2O2 = H2O + HO2 :                      GCARR(1.80E-12, 0.0E+00, 0.0);
HO2 + NO = OH + NO2 :                        GCARR(3.30E-12, 0.0E+00, 270.0);     {2013/02/12; JPL 10-6; BHH,JMAO,EAM}
HO2 + HO2 = H2O2 + O2 :                      GC_HO2HO2(3.00E-13, 0.0E+00, 460.0, 2.1E-33, 0.0, 920.0); {2014/02/03; Eastham2014; SDE}
OH + CO = HO2 + CO2 :                        GC_OHCO(1.50E-13, 0.0E+00, 0.0);     {2017/02/22; JPL 15-10; BHH,MJE}
OH + CH4 = MO2 + H2O :                       GCARR(2.45E-12, 0.0E+00, -1775.0);
MO2 + NO = CH2O + HO2 + NO2 :                GC_RO2NO('B', 2.80E-12, 0.0E+00, 300.0, 1.0, 0.0, 0.0); {2019/05/10; Fisher2018; JAF}
MO2 + NO = MENO3 :                           GC_RO2NO('A', 2.80E-12, 0.0E+00, 300.0, 1.0, 0.0, 0.0); {2019/05/10; Fisher2018; JAF}
MO2 + HO2 = MP + O2 :                        GCARR(4.10E-13, 0.0E+00, 750.0);
MO2 + MO2 = MOH + CH2O + O2 :                GC_TBRANCH(9.50E-14, 0.0E+00, 390.0, 2.62E1, 0.0, -1130.0);
MO2 + MO2 = 2.000CH2O + 2.000HO2 :           GC_TBRANCH(9.50E-14, 0.0E+00, 390.0, 4.E-2, 0.0, 1130.0);
MP + OH = MO2 + H2O :                        GCARR(2.66E-12, 0.0E+00, 200.0);
MP + OH = CH2O + OH + H2O :                  GCARR(1.14E-12, 0.0E+00, 200.0);
ATOOH + OH = ATO2 + H2O :                    GCARR(2.66E-12, 0.0E+00, 200.0);     {2013/03/22; Paulot2009; FP,EAM,JMAO,MJE}
ATOOH + OH = MGLY + OH + H2O :               GCARR(1.14E-12, 0.0E+00, 200.0);     {2013/03/22; Paulot2009; FP,EAM,JMAO,MJE}
CH2O + OH = CO + HO2 + H2O :                 GCARR(5.50E-12, 0.0E+00, 125.0);
NO2 + OH {+M} = HNO3 {+M} :                  GCJPLPR(1.80E-30, 3.0E+00, 0.0, 2.8E-11, 0.0, 0.0, 0.6, 0.0, 0.0);
HNO3 + OH = H2O + NO3 :                      GC_OHHNO3(2.41E-14, 0.0E+00, 460.0, 2.69E-17, 0.E0, 2199., 6.51E-34, 0.E0, 1335.0);
NO + OH {+M} = HNO2 {+M} :                   GCJPLPR(7.00E-31, 2.6E+00, 0.0, 3.60E-11, 0.1, 0.0, 0.6, 0.0, 0.0);
HNO2 + OH = H2O + NO2 :                      GCARR(1.80E-11, 0.0E+00, -390.0);
HO2 + NO2 {+M} = HNO4 {+M} :                 GCJPLPR(1.90E-31, 3.4E+00, 0.0, 4.0e-12, 0.3, 0.0, 0.6, 0.0, 0.0); {2017/02/22; JPL 15-10; BHH,MJE}
HNO4 {+M} = HO2 + NO2 :                      GCJPLPR(9.05E-05, 3.4E+00, -10900.0, 1.90E15, 0.3, -10900.0, 0.6, 0.0, 0.0); {2017/02/22; JPL 15-10; BHH,MJE}
HNO4 + OH = H2O + NO2 + O2 :                 GCARR(1.30E-12, 0.0E+00, 380.0);
HO2 + NO3 = OH + NO2 + O2 :                  GCARR(3.50E-12, 0.0E+00, 0.0);
NO + NO3 = 2.000NO2 :                        GCARR(1.50E-11, 0.0E+00, 170.0);
OH + NO3 = HO2 + NO2 :                       GCARR(2.20E-11, 0.0E+00, 0.0);
NO2 + NO3 {+M} = N2O5 {+M} :                 GCJPLPR(2.40E-30, 3.0E+00, 0.0, 1.6E-12, -0.1, 0.0, 0.6, 0.0, 0.0 ); {2017/02/22; JPL 15-10; BHH,MJE}
N2O5 {+M} = NO2 + NO3 :                      GCJPLPR(4.14E-04, 3.0E+00, -10840.0, 2.76E14, -0.1, -10840.0, 0.6, 0.0, 0.0 ); {2017/02/22; JPL 15-10; BHH,MJE}
HCOOH + OH = H2O + CO2 + HO2 :               GCARR(4.00E-13, 0.0E+00, 0.0);       {2013/03/22; Paulot2009; FP,EAM,JMAO,MJE}
MOH + OH = HO2 + CH2O :                      GCARR(2.90E-12, 0.0E+00, -345.0);
NO2 + NO3 = NO + NO2 + O2 :                  GCARR(4.50E-14, 0.0E+00, -1260.0);
NO3 + CH2O = HNO3 + HO2 + CO :               GCARR(5.80E-16, 0.0E+00, 0.0);
ALD2 + OH = 0.950MCO3 + 0.050CH2O +
 0.050CO + 0.050HO2 + H2O :                  GCARR(4.63E-12, 0.0E+00, 350.0);     {2014/02/03; Eastham2014; SDE}
ALD2 + NO3 = HNO3 + MCO3 :                   GCARR(1.40E-12, 0.0E+00, -1900.0);
MCO3 + NO2 {+M} = PAN :                      GCJPLPR(9.70E-29, 5.6E+00, 0.0, 9.3E-12, 1.5E0, 0.0, 0.6, 0.0, 0.0); {JPL Eval 17}
PAN = MCO3 + NO2 :                           GCJPLEQ(9.30E-29, 0.0E+00, 14000.0, 9.7E-29, 5.6E0, 0.0, 9.3E-12, 1.5E0, 0., 0.6, 0., 0.);
MCO3 + NO = MO2 + NO2 + CO2 :                GCARR(8.10E-12, 0.0E+00, 270.0);
C2H6 + OH = ETO2 + H2O :                     GCARR(7.66E-12, 0.0E+00, -1020.0);   {2013/02/12; JPL 10-6; BHH,JMAO,EAM}
ETO2 + NO = ALD2 + NO2 + HO2 :               GC_RO2NO('B', 2.60E-12, 0.0E+00, 365.0, 2E0, 0.0, 0.0); {2019/05/10; Fisher2018; JAF}
ETO2 + NO = ETNO3 :                          GC_RO2NO('A', 2.60E-12, 0.0E+00, 365.0, 2E0, 0.0, 0.0); {2019/05/10; Fisher2018; JAF}
OTHRO2 + NO = ALD2 + NO2 + HO2 :             GCARR(2.60E-12, 0.0E+00, 365.0);                        {2019/05/10; Fisher2018; JAF}
C3H8 + OH = B3O2 :                           GC_TBRANCH(7.60E-12, 0.0E+00, -585.0, 5.87E0, 0.64E0, -816.0);
C3H8 + OH = A3O2 :                           GC_TBRANCH(7.60E-12, 0.0E+00, -585.0, 1.7E-1, -0.64E0, 816.0);
A3O2 + NO = NO2 + HO2 + RCHO :               GC_RO2NO('B', 2.90E-12, 0.0E+00, 350.0, 3E0, 0.0, 0.0); {2019/05/10; Fisher2018; JAF}
A3O2 + NO = NPRNO3 :                         GC_RO2NO('A', 2.90E-12, 0.0E+00, 350.0, 3E0, 0.0, 0.0); {2019/05/10; Fisher2018; JAF}
PO2 + NO = NO2 + HO2 + CH2O + ALD2 :         GCARR(2.70E-12, 0.0E+00, 350.0);
ALK4 + OH = R4O2 :                           GCARR(9.10E-12, 0.0E+00, -405.0);
R4O2 + NO = NO2 + 0.320ACET + 0.190MEK +
 0.190MO2 + 0.270HO2 + 0.320ALD2 +
 0.140RCHO + 0.050A3O2 + 0.180B3O2 +
 0.320OTHRO2 :                               GC_RO2NO('B', 2.70E-12, 0.0E+00, 350.0, 4.5E0, 0.0, 0.0); {2017/02/23; ALK4 lumping fix; BHH}
R4O2 + NO = R4N2 :                           GC_RO2NO('A', 2.70E-12, 0.0E+00, 350.0, 4.5E0, 0.0, 0.0);
R4N1 + NO = 2.000NO2 + 0.570RCHO +
 0.860ALD2 + 0.570CH2O :                     GCARR(2.70E-12, 0.0E+00, 350.0);     {2017/07/27; Fix C creation; SAS,BHH,MJE}
ATO2 + NO = NO2 + CH2O + MCO3 :              GCARR(2.80E-12, 0.0E+00, 300.0);     {2017/07/27; Fix C creation; SAS,BHH,MJE}
KO2 + NO = 0.930NO2 + 0.930ALD2 +
 0.930MCO3 + 0.070R4N2 :                     GCARR(2.70E-12, 0.0E+00, 350.0);
B3O2 + NO = NO2 + HO2 + ACET :               GC_RO2NO('B', 2.70E-12, 0.0E+00, 360.0, 3E0, 0.0, 0.0); {2019/05/10; Fisher2018; JAF}
B3O2 + NO = IPRNO3 :                         GC_RO2NO('A', 2.70E-12, 0.0E+00, 360.0, 3E0, 0.0, 0.0); {2019/05/10; Fisher2018; JAF}
PRN1 + NO = 2.000NO2 + CH2O + ALD2 :         GCARR(2.70E-12, 0.0E+00, 350.0);
ALK4 + NO3 = HNO3 + R4O2 :                   GCARR(2.80E-12, 0.0E+00, -3280.0);
R4N2 + OH = R4N1 + H2O :                     GCARR(1.60E-12, 0.0E+00, 0.0);
ACTA + OH = MO2 + CO2 + H2O :                GCARR(3.15E-14, 0.0E+00, 920.0);     {2013/02/12; JPL 10-6; BHH,JMAO,EAM}
OH + RCHO = RCO3 + H2O :                     GCARR(6.00E-12, 0.0E+00, 410.0);
RCO3 + NO2 {+M} = PPN :                      GCJPLPR(9.00E-28, 8.9E+00, 0.0, 7.7E-12, 0.2, 0.0, 0.6, 0.0, 0.0); {JPL Eval 17}
PPN = RCO3 + NO2 :                           GCJPLEQ(9.00E-29, 0.0E+00, 14000.0, 9.00E-28, 8.9E0, 0.0, 7.7E-12, 0.2, 0., 0.6, 0., 0.);
RCO3 + NO = NO2 + 0.500OTHRO2 +
 0.070A3O2 + 0.270B3O2 :                     GCARR(6.70E-12, 0.0E+00, 340.0);     {2019/05/10; Fisher2018; JAF}
RCHO + NO3 = HNO3 + RCO3 :                   GCARR(6.50E-15, 0.0E+00, 0.0);
ACET + OH = ATO2 + H2O :                     1.33E-13+3.82E-11*exp(-2000.0_dp/TEMP); {JPL Eval 17, p1-62-D31; EVF}
A3O2 + MO2 = HO2 + 0.750CH2O + 0.750RCHO +
 0.250MOH + 0.250ROH :                       GCARR(5.92E-13, 0.0E+00, 0.0);
PO2 + MO2 = HO2 + 0.500ALD2 + 1.250CH2O +
 0.160HAC + 0.090RCHO + 0.250MOH +
 0.250ROH :                                  GCARR(5.92E-13, 0.0E+00, 0.0);
R4O2 + HO2 = R4P :                           GCARR(7.40E-13, 0.0E+00, 700.0);
R4N1 + HO2 = R4N2 :                          GCARR(7.40E-13, 0.0E+00, 700.0);
ATO2 + HO2 = 0.150MCO3 + 0.150OH +
 0.150CH2O + 0.850ATOOH :                    GCARR(8.60E-13, 0.0E+00, 700.0);     {2013/03/22; Paulot2009; FP,EAM,JMAO,MJE}
KO2 + HO2 = 0.150OH + 0.150ALD2 +
 0.150MCO3 + 0.850ATOOH :                    GC_RO2HO2(2.91E-13, 0.0E+00, 1300.0, 4.0, 0.0, 0.0); {2013/03/22; Paulot2009; FP,EAM,JMAO,MJE}
B3O2 + HO2 = RB3P :                          GC_RO2HO2(2.91E-13, 0.0E+00, 1300.0, 3.0, 0.0, 0.0); {2013/03/22; Paulot2009; FP,EAM,JMAO,MJE}
PRN1 + HO2 = PRPN :                          GC_RO2HO2(2.91E-13, 0.0E+00, 1300.0, 3.0, 0.0, 0.0); {2013/03/22; Paulot2009; FP,EAM,JMAO,MJE}
MEK + OH = KO2 + H2O :                       GCARR(1.30E-12, 0.0E+00, -25.0);
MO2 + ETO2 = 0.750CH2O + 0.750ALD2 + HO2 +
 0.250MOH + 0.250EOH :                       GCARR(3.00E-13, 0.0E+00, 0.0);
MO2 + OTHRO2 = 0.750CH2O + 0.750ALD2 + 
 HO2 + 0.250MOH + 0.250EOH :                 GCARR(3.00E-13, 0.0E+00, 0.0);  {2019/05/10; Fisher2018; JAF}
MEK + NO3 = HNO3 + KO2 :                     GCARR(8.00E-16, 0.0E+00, 0.0);
R4O2 + MO2 = 0.160ACET + 0.100MEK +
 0.090MO2 + 0.140HO2 + 0.160ALD2 +
 0.070RCHO + 0.030A3O2 + 0.090B3O2 +
 0.160OTHRO2 + 0.250MEK + 0.750CH2O +
 0.250MOH + 0.250ROH + 0.500HO2 :            GCARR(8.37E-14, 0.0E+00, 0.0);
R4N1 + MO2 = NO2 + 0.200CH2O + 0.380ALD2 +
 0.290RCHO + 0.150R4O2 + 0.250RCHO +
 0.750CH2O + 0.250MOH + 0.250ROH +
 0.500HO2 :                                  GCARR(8.37E-14, 0.0E+00, 0.0);
ATO2 + MO2 = 0.300HO2 + 0.300CH2O +
 0.300MCO3 + 0.200HAC + 0.200CH2O +
 0.500MGLY + 0.500MOH :                      GCARR(7.50E-13, 0.0E+00, 500.0);
KO2 + MO2 = 0.500ALD2 + 0.500MCO3 +
 0.250MEK + 0.750CH2O + 0.250MOH +
 0.250ROH + 0.500HO2 :                       GCARR(8.37E-14, 0.0E+00, 0.0);
B3O2 + MO2 = 0.500HO2 + 0.500ACET +
 0.250ACET + 0.750CH2O + 0.250MOH +
 0.250ROH + 0.500HO2 :                       GCARR(8.37E-14, 0.0E+00, 0.0);
PRN1 + MO2 = NO2 + 0.500CH2O + 0.500ALD2 +
 0.250RCHO + 0.750CH2O + 0.250MOH +
 0.250ROH + 0.500HO2 :                       GCARR(8.37E-14, 0.0E+00, 0.0);
EOH + OH = HO2 + ALD2 :                      GCARR(3.35E-12, 0.0E+00, 0.0);       {2013/02/12; JPL 10-6; BHH,JMAO,EAM}
ROH + OH = HO2 + RCHO :                      GCARR(4.60E-12, 0.0E+00, 70.0);
ETO2 + ETO2 = 2.000ALD2 + 2.000HO2 :         GCARR(4.10E-14, 0.0E+00, 0.0);
OTHRO2 + OTHRO2 = 2.000ALD2 + 2.000HO2 :     GCARR(4.10E-14, 0.0E+00, 0.0);       {2019/05/10; Fisher2018; JAF}
ETO2 + ETO2 = EOH + ALD2 :                   GCARR(2.70E-14, 0.0E+00, 0.0);
OTHRO2 + OTHRO2 = EOH + ALD2 :               GCARR(2.70E-14, 0.0E+00, 0.0);       {2019/05/10; Fisher2018; JAF}
HO2 + ETO2 = ETP :                           GCARR(7.40E-13, 0.0E+00, 700.0);
HO2 + OTHRO2 = ETP :                         GCARR(7.40E-13, 0.0E+00, 700.0);     {2019/05/10; Fisher2018; JAF}
A3O2 + HO2 = RA3P :                          GC_RO2HO2(2.91E-13, 0.0E+00, 1300.0, 3.0, 0.0, 0.0); {2013/03/22; Paulot2009; FP,EAM,JMAO,MJE}
PO2 + HO2 = PP :                             GC_RO2HO2(2.91E-13, 0.0E+00, 1300.0, 3.0, 0.0, 0.0); {2013/03/22; Paulot2009; FP,EAM,JMAO,MJE}
RCO3 + HO2 = 0.410RP + 0.150RCOOH +
 0.150O3 + 0.440OH + 0.220OTHRO2 +
 0.030A3O2 + 0.120B3O2 :                     GCARR(4.30E-13, 0.0E+00, 1040.0);    {2019/05/10; Fisher2018; JAF}
PRPE + OH {+M} = PO2 :                       GCJPLPR(4.60E-27, 4.0E+00, 0.0, 2.6E-11, 1.3, 0.0, 0.5, 0.0, 0.0); {2017/02/22; JPL 15-10; BHH,MJE}
PRPE + O3 = 0.500ALD2 + 0.500CH2O +
 0.120CH3CHOO + 0.100CH4 + 0.120CH2OO +
 0.280MO2 + 0.560CO + 0.280HO2 + 0.360OH :   GCARR(5.50E-15, 0.0E+00, -1880.0);   {2015/09/25; Millet2015; DBM,EAM}
GLYC + OH = 0.732CH2O + 0.361CO2 +
 0.505CO + 0.227OH + 0.773HO2 +
 0.134GLYX + 0.134HCOOH :                    GC_GLYCOHA(8.00E-12, 0.0E+00, 0.0);  {2013/03/22; Paulot2009; FP,EAM,JMAO,MJE}
GLYC + OH = HCOOH + OH + CO :                GC_GLYCOHB(8.00E-12, 0.0E+00, 0.0);  {2013/03/22; Paulot2009; FP,EAM,JMAO,MJE}
PRPE + NO3 = PRN1 :                          GCARR(4.59E-13, 0.0E+00, -1156.0);
GLYX + OH = HO2 + 2.000CO :                  GCARR(3.10E-12, 0.0E+00, 340.0);     {2013/03/22; Paulot2009; FP,EAM,JMAO,MJE}
MGLY + OH = MCO3 + CO :                      GCARR(1.50E-11, 0.0E+00, 0.0);
GLYX + NO3 = HNO3 + HO2 + 2.000CO :          GC_GLYXNO3(1.40E-12, 0.0E+00, -1860.0);
MGLY + NO3 = HNO3 + CO + MCO3 :              GCARR(3.36E-12, 0.0E+00, -1860.0);   {2013/03/22; Paulot2009; FP,EAM,JMAO,MJE}
HAC + OH = MGLY + HO2 :                      GC_HACOHA(2.15E-12, 0.0E+00, 305.0); {2013/03/22; Paulot2009; FP,EAM,JMAO,MJE}
HAC + OH = 0.500HCOOH + OH + 0.500ACTA +
 0.500CO2 + 0.500CO + 0.500MO2 :             GC_HACOHB(2.15E-12, 0.0E+00, 305.0); {2013/03/22; Paulot2009; FP,EAM,JMAO,MJE}
MCO3 + A3O2 = MO2 + RCHO + HO2 :             GCARR(1.68E-12, 0.0E+00, 500.0);
MCO3 + PO2 = MO2 + ALD2 + CH2O + HO2 :       GCARR(1.68E-12, 0.0E+00, 500.0);
MCO3 + A3O2 = ACTA + RCHO :                  GCARR(1.87E-13, 0.0E+00, 500.0);
MCO3 + PO2 = ACTA + 0.350RCHO + 0.650HAC :   GCARR(1.87E-13, 0.0E+00, 500.0);
RCO3 + MO2 = CH2O + HO2 + 0.500OTHRO2 +
 0.070A3O2 + 0.270B3O2 :                     GCARR(1.68E-12, 0.0E+00, 500.0);     {2019/05/10; Fisher2018; JAF}
RCO3 + MO2 = RCOOH + CH2O :                  GCARR(1.87E-13, 0.0E+00, 500.0);
PRPN + OH = 0.209PRN1 + 0.791OH +
 0.791PROPNN :                               GCARR(8.78E-12, 0.0E+00, 200.0);     {2013/03/22; Paulot2009; FP,EAM,JMAO,MJE}
ETP + OH = 0.640OH + 0.360OTHRO2 + 
 0.640ALD2 :                                 GCARR(5.18E-12, 0.0E+00, 200.0);     {2013/03/22; Paulot2009; FP,EAM,JMAO,MJE}
RA3P + OH = 0.640OH + 0.360A3O2 +
 0.640RCHO :                                 GCARR(5.18E-12, 0.0E+00, 200.0);     {2013/03/22; Paulot2009; FP,EAM,JMAO,MJE}
RB3P + OH = 0.791OH + 0.209B3O2 +
 0.791ACET :                                 GCARR(8.78E-12, 0.0E+00, 200.0);     {2013/03/22; Paulot2009; FP,EAM,JMAO,MJE}
R4P + OH = 0.791OH + 0.209R4O2 + 0.791RCHO : GCARR(8.78E-12, 0.0E+00, 200.0);     {2013/03/22; Paulot2009; FP,EAM,JMAO,MJE}
RP + OH = RCO3 :                             GCARR(6.13E-13, 0.0E+00, 200.0);     {2013/03/22; Paulot2009; FP,EAM,JMAO,MJE}
PP + OH = 0.791OH + 0.209PO2 + 0.791HAC :    GCARR(8.78E-12, 0.0E+00, 200.0);     {2013/03/22; Paulot2009; FP,EAM,JMAO,MJE}
LVOC + OH = OH :                             GCARR(4.82E-11, 0.0E+00, -400.0);    {2017/06/14; Marais2016; EAM}
OH + MAP = MCO3 :                            GCARR(6.13E-13, 0.0E+00, 200.0);     {2013/03/22; Paulot2009; FP,EAM,JMAO,MJE}
C2H6 + NO3 = ETO2 + HNO3 :                   GCARR(1.40E-18, 0.0E+00, 0.0);       {2013/03/22; Paulot2009; FP,EAM,JMAO,MJE}
MCO3 + MCO3 = 2.000MO2 :                     GCARR(2.50E-12, 0.0E+00, 500.0);
MCO3 + MO2 = CH2O + MO2 + HO2 :              GCARR(1.80E-12, 0.0E+00, 500.0);
MCO3 + MO2 = ACTA + CH2O :                   GCARR(2.00E-13, 0.0E+00, 500.0);
R4O2 + MCO3 = MO2 + 0.320ACET + 0.190MEK +
 0.270HO2 + 0.320ALD2 + 0.130RCHO +
 0.050A3O2 + 0.180B3O2 + 0.320OTHRO2 :       GCARR(1.68E-12, 0.0E+00, 500.0);     {2013/03/22; Paulot2009; FP,EAM,JMAO,MJE}
ATO2 + MCO3 = MO2 + MCO3 + CH2O :            GCARR(1.68E-12, 0.0E+00, 500.0);     {2013/03/22; Paulot2009; FP,EAM,JMAO,MJE}
KO2 + MCO3 = MO2 + ALD2 + MCO3 :             GCARR(1.68E-12, 0.0E+00, 500.0);
B3O2 + MCO3 = MO2 + HO2 + ACET :             GCARR(1.68E-12, 0.0E+00, 500.0);
R4N1 + MCO3 = MO2 + NO2 + 0.390CH2O +
 0.750ALD2 + 0.570RCHO + 0.300R4O2 :         GCARR(1.68E-12, 0.0E+00, 500.0);
PRN1 + MCO3 = MO2 + NO2 + CH2O + ALD2 :      GCARR(1.68E-12, 0.0E+00, 500.0);
R4O2 + MCO3 = MEK + ACTA :                   GCARR(1.87E-13, 0.0E+00, 500.0);
ATO2 + MCO3 = MGLY + ACTA :                  GCARR(1.87E-13, 0.0E+00, 500.0);     {2017/07/27; Fix C creation; SAS,BHH,MJE}
KO2 + MCO3 = MEK + ACTA :                    GCARR(1.87E-13, 0.0E+00, 500.0);
R4N1 + MCO3 = RCHO + ACTA + NO2 :            GCARR(1.87E-13, 0.0E+00, 500.0);
PRN1 + MCO3 = RCHO + ACTA + NO2 :            GCARR(1.87E-13, 0.0E+00, 500.0);
B3O2 + MCO3 = ACET + ACTA :                  GCARR(1.87E-13, 0.0E+00, 500.0);
MCO3 + ETO2 = MO2 + ALD2 + HO2 :             GCARR(1.68E-12, 0.0E+00, 500.0);
MCO3 + OTHRO2 = MO2 + ALD2 + HO2 :           GCARR(1.68E-12, 0.0E+00, 500.0);     {2019/05/10; Fisher2018; JAF}
MCO3 + ETO2 = ACTA + ALD2 :                  GCARR(1.87E-13, 0.0E+00, 500.0);
MCO3 + OTHRO2 = ACTA + ALD2 :                GCARR(1.87E-13, 0.0E+00, 500.0);     {2019/05/10; Fisher2018; JAF}
RCO3 + MCO3 = MO2 + 0.500OTHRO2 +
 0.070A3O2 + 0.270B3O2 :                     GCARR(2.50E-12, 0.0E+00, 500.0);     {2019/05/10; Fisher2018; JAF}
NO3 + NO3 = 2.000NO2 + O2 :                  GCARR(8.50E-13, 0.0E+00, -2450.0);
MO2 + NO2 {+M} = MPN {+M} :                  GCJPLPR(1.00E-30, 4.8E+00, 0.0, 7.2E-12, 2.1E0, 0.0, 0.6, 0.0, 0.0); {2012/02/12; Browne2011; ECB}
MPN {+M} = MO2 + NO2 :                       GCJPLPR(1.05E-02, 4.8E+00, -11234.0, 7.58E16, 2.1E0, -11234.0, 0.6, 0.0, 0.0); {2012/02/12; Browne2011; ECB}
DMS + OH = SO2 + MO2 + CH2O :                GCARR(1.20E-11, 0.0E+00, -280.0);
DMS + OH = 0.750SO2 + 0.250MSA + MO2 :       GC_DMSOH(8.20E-39, 0.0E+00, 5376.0, 1.05E-5, 0.0, 3644.0);
DMS + NO3 = SO2 + HNO3 + MO2 + CH2O :        GCARR(1.90E-13, 0.0E+00, 530.0);
SO2 + OH {+M} = SO4 + HO2 :                  GCJPLPR(3.30E-31, 4.3E+00, 0.0, 1.6E-12, 0.0, 0.0, 0.6, 0.0, 0.0);
Br + O3 = BrO + O2 :                         GCARR(1.60E-11, 0.0E+00, -780.0);    {2012/06/07; Parrella2012; JPP}
BrO + HO2 = HOBr + O2 :                      GCARR(4.50E-12, 0.0E+00, 460.0);     {2012/06/07; Parrella2012; JPP}
Br + HO2 = HBr + O2 :                        GCARR(4.80E-12, 0.0E+00, -310.0);    {2012/06/07; Parrella2012; JPP}
HBr + OH = Br + H2O :                        GCARR(5.50E-12, 0.0E+00, 200.0);     {2012/06/07; Parrella2012; JPP}
BrO + BrO = 2.000Br + O2 :                   GCARR(2.40E-12, 0.0E+00, 40.0);      {2012/06/07; Parrella2012; JPP}
BrO + BrO = Br2 + O2 :                       GCARR(2.80E-14, 0.0E+00, 860.0);     {2012/06/07; Parrella2012; JPP}
BrO + NO = Br + NO2 :                        GCARR(8.80E-12, 0.0E+00, 260.0);     {2012/06/07; Parrella2012; JPP}
Br + BrNO3 = Br2 + NO3 :                     GCARR(4.90E-11, 0.0E+00, 0.0);       {2012/06/07; Parrella2012; JPP}
Br2 + OH = HOBr + Br :                       GCARR(2.10E-11, 0.0E+00, 240.0);     {2012/06/07; Parrella2012; JPP}
HOBr + O = OH + BrO :                        GCARR(1.20E-10, 0.0E+00, -430.0);    {2014/02/03; Eastham2014; SDE}
HBr + O = OH + Br :                          GCARR(5.80E-12, 0.0E+00, -1500.0);   {2014/02/03; Eastham2014; SDE}
BrO + OH = Br + HO2 :                        GCARR(1.70E-11, 0.0E+00, 250.0);     {2012/06/07; Parrella2012; JPP}
Br + NO3 = BrO + NO2 :                       GCARR(1.60E-11, 0.0E+00, 0.0);       {2012/06/07; Parrella2012; JPP}
Br + CH2O = HBr + HO2 + CO :                 GCARR(1.70E-11, 0.0E+00, -800.0);    {2012/06/07; Parrella2012; JPP}
Br + ALD2 = HBr + MCO3 :                     GCARR(1.80E-11, 0.0E+00, -460.0);    {2017/07/27; Parrella2012,Fix C creation; SAS,BHH,MJE}
Br + ACET = HBr + ATO2 :                     GCARR(1.66E-10, 0.0E+00, -7000.0);   {2017/07/27; Parrella2012,Fix C creation; SAS,BHH,MJE}
Br + C2H6 = HBr + ETO2 :                     GCARR(2.36E-10, 0.0E+00, -6411.0);   {2017/07/27; Parrella2012,Fix C creation; SAS,BHH,MJE}
Br + C3H8 = HBr + A3O2 :                     GCARR(8.77E-11, 0.0E+00, -4330.0);   {2017/07/27; Parrella2012,Fix C creation; SAS,BHH,MJE}
Br + NO2 {+M} = BrNO2 {+M} :                 GCJPLPR(4.20E-31, 2.4E+00, 0.0, 2.7E-11, 0.0, 0.0, 0.6, 0.0, 0.0); {2012/06/07; Parrella2012; JPP}
BrO + NO2 {+M} = BrNO3 {+M} :                GCJPLPR(5.40E-31, 3.1E+00, 0.0, 6.5E-12, 2.9, 0.0, 0.6, 0.0, 0.0); {2017/02/22; JPL 15-10; BHH,MJE}
CHBr3 + OH = 3.000Br :                       GCARR(9.00E-13, 0.0E+00, -360.0);    {2017/02/22; JPL 15-10; BHH,MJE}
CH2Br2 + OH = 2.000Br :                      GCARR(2.00E-12, 0.0E+00, -840.0);    {2012/06/07; Parrella2012; JPP}
CH3Br + OH = Br + H2O + HO2 :                GCARR(1.42E-12, 0.0E+00, -1150.0);   {2017/03/08; JPL 15-10; TS,BHH,MJE}
O1D + H2O = 2.000OH :                        GCARR(1.63E-10, 0.0E+00, 60.0);      {2014/02/03; Eastham2014; SDE}
O1D + N2 = O + N2 :                          GCARR(2.15E-11, 0.0E+00, 110.0);     {2014/02/03; Eastham2014; SDE}
O1D + O2 = O + O2 :                          GCARR(3.30E-11, 0.0E+00, 55.0);      {2014/02/03; Eastham2014; SDE}
O1D + H2 = H + OH :                          GCARR(1.20E-10, 0.0E+00, 0.0);       {2014/02/03; Eastham2014; SDE}
O1D + N2O = N2 + O2 :                        GCARR(4.63E-11, 0.0E+00, 20.0);      {2014/02/03; Eastham2014; SDE}
O1D + N2O = 2.000NO :                        GCARR(7.25E-11, 0.0E+00, 20.0);      {2014/02/03; Eastham2014; SDE}
O1D + CH4 = MO2 + OH :                       GCARR(1.31E-10, 0.0E+00, 0.0);       {2014/02/03; Eastham2014; SDE}
O1D + CH4 = CH2O + H2 :                      GCARR(0.09E-10, 0.0E+00, 0.0);       {2014/02/03; Eastham2014; SDE}
O1D + CH4 = CH2O + H + HO2 :                 GCARR(0.35E-10, 0.0E+00, 0.0);       {2014/02/03; Eastham2014; SDE}
O + O2 {+M} = O3 {+M} :                      GCARR(6.00E-34, 2.4E+00, 0.0)*NUMDEN; {2014/02/03; Eastham2014; SDE}
O + O3 = 2.000O2 :                           GCARR(8.00E-12, 0.0E+00, -2060.0);   {2014/02/03; Eastham2014; SDE}
OH + H2 = H2O + H :                          GCARR(2.80E-12, 0.0E+00, -1800.0);   {2014/02/03; Eastham2014; SDE}
O + OH = O2 + H :                            GCARR(1.80E-11, 0.0E+00, 180.0);     {2014/02/03; Eastham2014; SDE}
HO2 + O = OH + O2 :                          GCARR(3.00E-11, 0.0E+00, 200.0);     {2014/02/03; Eastham2014; SDE}
O1D + O3 = 2.000O2 :                         GCARR(1.20E-10, 0.0E+00, 0.0);       {2014/02/03; Eastham2014; SDE}
O1D + O3 = 2.000O + O2 :                     GCARR(1.20E-10, 0.0E+00, 0.0);       {2014/02/03; Eastham2014; SDE}
OCS + O = CO + SO2 :                         GCARR(2.10E-11, 0.0E+00, -2200.0);   {2014/02/03; Eastham2014; SDE}
OCS + OH = CO2 + SO2 :                       GCARR(1.10E-13, 0.0E+00, -1200.0);   {2014/02/03; Eastham2014; SDE}
NO2 + O = NO + O2 :                          GCARR(5.10E-12, 0.0E+00, 210.0);     {2014/02/03; Eastham2014; SDE}
NO3 + O = NO2 + O2 :                         GCARR(1.00E-11, 0.0E+00, 0.0);       {2014/02/03; Eastham2014; SDE}
NO + O {+M} = NO2 {+M} :                     GCJPLPR(9.00E-32, 1.5E+00, 0.0, 3.0E-11, 0.0E0, 0.0, 0.6, 0.0, 0.0); {2014/02/03; Eastham2014; SDE}
NO2 + O {+M} = NO3 {+M} :                    GCJPLPR(2.50E-31, 1.8E+00, 0.0, 2.2E-11, 0.7E0, 0.0, 0.6, 0.0, 0.0); {2014/02/03; Eastham2014; SDE}
H2O2 + O = OH + HO2 :                        GCARR(1.40E-12, 0.0E+00, -2000.0);   {2014/02/03; Eastham2014; SDE}
H + O2 {+M} = HO2 {+M} :                     GCJPLPR(4.40E-32, 1.3E+00, 0.0, 7.5E-11, -0.2E0, 0.0, 0.6, 0.0, 0.0); {2014/02/03; Eastham2014; SDE}
H + O3 = OH + O2 :                           GCARR(1.40E-10, 0.0E+00, -470.0);    {2014/02/03; Eastham2014; SDE}
H + HO2 = 2.000OH :                          GCARR(7.20E-11, 0.0E+00, 0.0);       {2014/02/03; Eastham2014; SDE}
H + HO2 = O + H2O :                          GCARR(1.60E-12, 0.0E+00, 0.0);       {2014/02/03; Eastham2014; SDE}
H + HO2 = H2 + O2 :                          GCARR(6.90E-12, 0.0E+00, 0.0);       {2014/02/03; Eastham2014; SDE}
N + O2 = NO + O :                            GCARR(1.50E-11, 0.0E+00, -3600.0);   {2014/02/03; Eastham2014; SDE}
N + NO = N2 + O :                            GCARR(2.10E-11, 0.0E+00, 100.0);     {2014/02/03; Eastham2014; SDE}
N + NO2 = N2O + O :                          GCARR(5.80E-12, 0.0E+00, 220.0);     {2014/02/03; Eastham2014; SDE}
BrO + O = Br + O2 :                          GCARR(1.90E-11, 0.0E+00, 230.0);     {2014/02/03; Eastham2014; SDE}
CH2O + O = CO + HO2 + OH :                   GCARR(3.40E-11, 0.0E+00, -1600.0);   {2014/02/03; Eastham2014; SDE}
O1D + HCl = 0.090O + 0.090HCl + 0.240H +
 0.670Cl + 0.240ClO + 0.670OH :              GCARR(1.50E-10, 0.0E+00, 0.0);       {2014/02/03; Eastham2014; SDE}
O1D + HBr = 0.200O + 0.200HBr + 0.150BrO +
 0.650OH + 0.150H + 0.650Br :                GCARR(1.50E-10, 0.0E+00, 0.0);       {2014/02/03; Eastham2014; SDE}
O1D + Cl2 = 0.250O + 0.250Cl2 + 0.750Cl +
 0.750ClO :                                  GCARR(2.70E-10, 0.0E+00, 0.0);       {2014/02/03; Eastham2014; SDE}
O1D + CCl4 = 0.140O + 0.140CCl4 +
 0.860ClO + 2.580Cl :                        GCARR(3.30E-10, 0.0E+00, 0.0);       {2014/02/03; Eastham2014; SDE}
O1D + CH3Br = 0.440BrO + MO2 + 0.560Br :     GCARR(1.80E-10, 0.0E+00, 0.0);       {2014/02/03; Eastham2014; SDE}
O1D + CH2Br2 = 0.050O + 0.050CH2Br2 +
 0.950BrO + 0.950Br :                        GCARR(2.70E-10, 0.0E+00, 0.0);       {2014/02/03; Eastham2014; SDE}
O1D + CHBr3 = 0.320O + 0.320CHBr3 +
 0.680BrO + 1.360Br :                        GCARR(6.60E-10, 0.0E+00, 0.0);       {2014/02/03; Eastham2014; SDE}
O1D + HCFC22 = 0.280O + 0.280HCFC22 +
 0.550ClO + 0.170Cl :                        GCARR(1.02E-10, 0.0E+00, 0.0);       {2017/02/22; JPL 15-10; BHH,MJE}
O1D + CFC11 = 0.120O + 0.120CFC11 +
 0.880ClO + 1.760Cl :                        GCARR(2.30E-10, 0.0E+00, 0.0);       {2014/02/03; Eastham2014; SDE}
O1D + CFC12 = 0.140O + 0.140CFC12 +
 0.860ClO + 0.860Cl :                        GCARR(1.40E-10, 0.0E+00, 0.0);       {2014/02/03; Eastham2014; SDE}
O1D + H1211 = 0.360O + 0.360H1211 +
 0.310BrO + 0.310Cl + 0.330Br + 0.330ClO :   GCARR(1.50E-10, 0.0E+00, 0.0);       {2014/02/03; Eastham2014; SDE}
O1D + H1301 = 0.590O + 0.590H1301 +
 0.410BrO :                                  GCARR(1.00E-10, 0.0E+00, 0.0);       {2014/02/03; Eastham2014; SDE}
O1D + HCFC141b = 0.310O + 0.310HCFC141b +
 0.690ClO + 0.690Cl :                        GCARR(2.60E-10, 0.0E+00, 0.0);       {2014/02/03; Eastham2014; SDE}
O1D + HCFC142b = 0.260O + 0.260HCFC142b +
 0.740ClO :                                  GCARR(2.00E-10, 0.0E+00, 0.0);       {2017/02/22; JPL 15-10; BHH,MJE}
O1D + HCFC123 = 0.210O + 0.210HCFC123 +
 0.790Cl + 0.790ClO :                        GCARR(2.00E-10, 0.0E+00, 0.0);       {2014/02/03; Eastham2014; SDE}
O1D + CFC113 = 0.250O + 0.250CFC113 +
 1.500Cl + 0.750ClO :                        GCARR(2.32E-10, 0.0E+00, 0.0);       {2017/02/22; JPL 15-10; BHH,MJE}
O1D + CFC114 = 0.250O + 0.250CFC114 +
 0.750Cl + 0.750ClO :                        GCARR(1.30E-10, 0.0E+00, -25.0);     {2017/02/22; JPL 15-10; BHH,MJE}
O1D + CFC115 = 0.700O + 0.700CFC115 +
 0.300ClO :                                  GCARR(5.40E-11, 0.0E+00, -30.0);     {2017/02/22; JPL 15-10; BHH,MJE}
O1D + H2402 = 0.250O + 0.250H2402 +
 0.750Br + 0.750BrO :                        GCARR(1.60E-10, 0.0E+00, 0.0);       {2014/02/03; Eastham2014; SDE}
OH + Cl2 = HOCl + Cl :                       GCARR(2.60E-12, 0.0E+00, -1100.0);   {2014/02/03; Eastham2014; SDE}
MO2 + ClO = ClOO + HO2 + CH2O :              GCARR(1.80E-11, 0.0E+00, -600.0);    {2017/03/20; JPL 15-10; TS,BHH,MJE}
OH + ClO = HO2 + Cl :                        GCARR(7.40E-12, 0.0E+00, 270.0);     {2014/02/03; Eastham2014; SDE}
OH + ClO = HCl + O2 :                        GCARR(6.00E-13, 0.0E+00, 230.0);     {2014/02/03; Eastham2014; SDE}
OH + OClO = HOCl + O2 :                      GCARR(1.40E-12, 0.0E+00, 600.0);     {2017/02/22; JPL 15-10; BHH,MJE}
OH + Cl2O2 = HOCl + ClOO :                   GCARR(6.00E-13, 0.0E+00, 670.0);     {2014/02/03; Eastham2014; SDE}
OH + HCl = H2O + Cl :                        GCARR(1.80E-12, 0.0E+00, -250.0);    {2014/02/03; Eastham2014; SDE}
OH + HOCl = H2O + ClO :                      GCARR(3.00E-12, 0.0E+00, -500.0);    {2014/02/03; Eastham2014; SDE}
OH + ClNO2 = HOCl + NO2 :                    GCARR(2.40E-12, 0.0E+00, -1250.0);   {2014/02/03; Eastham2014; SDE}
OH + ClNO3 = HOCl + NO3 :                    GCARR(1.20E-12, 0.0E+00, -330.0);    {2014/02/03; Eastham2014; SDE}
OH + CH3Cl = Cl + HO2 + H2O :                GCARR(1.96E-12, 0.0E+00, -1200.0);   {2017/02/22; JPL 15-10; BHH,MJE}
OH + CH2Cl2 = 2.000Cl + HO2 :                GCARR(2.61E-12, 0.0E+00, -944.0);    {2017/09/22; Sherwen2016b;TS,JAS,SDE}
OH + CHCl3 = 3.000Cl + HO2 :                 GCARR(4.69E-12, 0.0E+00, -1134.0);   {2017/09/22; Sherwen2016b;TS,JAS,SDE}
OH + CH3CCl3 = 3.000Cl + H2O :               GCARR(1.64E-12, 0.0E+00, -1520.0);   {2014/02/03; Eastham2014; SDE}
OH + HCFC22 = Cl + H2O :                     GCARR(9.20E-13, 0.0E+00, -1560.0);   {2017/02/22; JPL 15-10; BHH,MJE}
OH + HCFC141b = 2.000Cl + H2O :              GCARR(1.25E-12, 0.0E+00, -1600.0);   {2014/02/03; Eastham2014; SDE}
OH + HCFC142b = Cl + H2O :                   GCARR(1.30E-12, 0.0E+00, -1770.0);   {2014/02/03; Eastham2014; SDE}
OH + HCFC123 = 2.000Cl + H2O :               GCARR(7.40E-13, 0.0E+00, -900.0);    {2017/02/22; JPL 15-10; BHH,MJE}
CH4 + Cl = HCl + MO2 :                       GCARR(7.10E-12, 0.0E+00, -1270.0);   {2017/03/08; JPL 15-10; TS,BHH,MJE}
CH2O + Cl = CO + HCl + HO2 :                 GCARR(7.32E-11, 0.0E+00, -30.0);     {2017/09/22; Sherwen2016b; TS,JAS,SDE}
Cl + O3 = ClO + O2 :                         GCARR(2.30E-11, 0.0E+00, -200.0);    {2014/02/03; Eastham2014; SDE}
Cl + H2 = H + HCl :                          GCARR(3.05E-11, 0.0E+00, -2270.0);   {2014/02/03; Eastham2014; SDE}
Cl + H2O2 = HO2 + HCl :                      GCARR(1.10E-11, 0.0E+00, -980.0);    {2014/02/03; Eastham2014; SDE}
Cl + HO2 = O2 + HCl :                        GCARR(1.40E-11, 0.0E+00, 270.0);     {2014/02/03; Eastham2014; SDE}
Cl + HO2 = OH + ClO :                        GCARR(3.60E-11, 0.0E+00, -375.0);    {2014/02/03; Eastham2014; SDE}
ClO + O = Cl + O2 :                          GCARR(2.80E-11, 0.0E+00, 85.0);      {2014/02/03; Eastham2014; SDE}
ClO + HO2 = O2 + HOCl :                      GCARR(2.60E-12, 0.0E+00, 290.0);     {2014/02/03; Eastham2014; SDE}
ClO + NO = Cl + NO2 :                        GCARR(6.40E-12, 0.0E+00, 290.0);     {2014/02/03; Eastham2014; SDE}
ClO + NO2 {+M} = ClNO3 {+M} :                GCJPLPR(1.80E-31, 3.4E+00, 0.0, 1.50E-11, 1.9E0, 0.0, 0.6, 0.0, 0.0); {2014/02/03; Eastham2014; SDE}
ClO + ClO = Cl2 + O2 :                       GCARR(1.00E-12, 0.0E+00, -1590.0);   {2014/02/03; Eastham2014; SDE}
ClO + ClO = Cl + ClOO :                      GCARR(3.00E-11, 0.0E+00, -2450.0);   {2014/02/03; Eastham2014; SDE}
ClO + ClO = OClO + Cl :                      GCARR(3.50E-13, 0.0E+00, -1370.0);   {2014/02/03; Eastham2014; SDE}
Cl + O2 {+M} = ClOO {+M} :                   GCJPLPR(2.20E-33, 3.1E+00, 0.0, 1.8E-10, 0.0, 0.0, 0.6, 0.0, 0.0); {2014/02/03; Eastham2014; SDE}
ClOO {+M} = Cl + O2 {+M} :                   GCJPLPR(3.33E-09, 3.1E+00, -2502.0, 2.73E+14, 0.0, -2502.0, 0.6, 0.0, 0.0); {2014/02/03; Eastham2014; SDE}
ClO + ClO {+M} = Cl2O2 {+M} :                GCJPLPR(1.90E-32, 3.6E+00, 0.0, 3.7E-12, 1.6, 0.0, 0.6, 0.0, 0.0); {2017/02/22; JPL 15-10; BHH,MJE}
Cl2O2 {+M} = 2.000ClO {+M} :                 GCJPLPR(9.30E-06, 4.5E+00, -8649.0, 1.74E+15, 2.0E0, -8649.0, 0.6, 0.0, 0.0);
ClOO + Cl = Cl2 + O2 :                       GCARR(2.30E-10, 0.0E+00, 0.0);       {2014/02/03; Eastham2014; SDE}
ClOO + Cl = 2.000ClO :                       GCARR(1.20E-11, 0.0E+00, 0.0);       {2014/02/03; Eastham2014; SDE}
ClO + BrO = Br + OClO :                      GCARR(9.50E-13, 0.0E+00, 550.0);     {2014/02/03; Eastham2014; SDE}
ClO + BrO = Br + ClOO :                      GCARR(2.30E-12, 0.0E+00, 260.0);     {2014/02/03; Eastham2014; SDE}
ClO + BrO = BrCl + O2 :                      GCARR(4.10E-13, 0.0E+00, 290.0);     {2014/02/03; Eastham2014; SDE}
ClNO3 + O = ClO + NO3 :                      GCARR(3.60E-12, 0.0E+00, -840.0);    {2014/02/03; Eastham2014; SDE}
ClNO3 + Cl = Cl2 + NO3 :                     GCARR(6.50E-12, 0.0E+00, 135.0);     {2014/02/03; Eastham2014; SDE}
CH3Cl + Cl = CO + 2.000HCl + HO2 :           GCARR(2.17E-11, 0.0E+00, -1130.0);   {2014/02/03; Eastham2014; SDE}
CH2Cl2 + Cl = CO + HCl + 2.000Cl + HO2 :     GCARR(1.24E-12, 0.0E+00, -1070.0);   {2017/09/22; Sherwen2016b;TS,JAS,SDE}
CHCl3 + Cl = CO + HCl + 3.000Cl + HO2 :      GCARR(3.77E-12, 0.0E+00, -1011.0);   {2017/09/22; Sherwen2016b;TS,JAS,SDE}
Cl + HCOOH = HCl + CO2 + H2O :               GCARR(2.00E-13, 0.0E+00, 0.0);       {2017/09/22; Sherwen2016b;TS,JAS,SDE}
Cl + MO2 = ClO + CH2O + HO2 :                GCARR(1.60E-10, 0.0E+00, 0.0);       {2017/09/22; Sherwen2016b;TS,JAS,SDE}
Cl + MP = HCl + MO2 :                        GCARR(5.7E-11, 0.0E+00, 0.0);        {2017/09/22; Sherwen2016b;TS,JAS,SDE}
Cl + C2H6 = HCl + ETO2 :                     GCARR(7.2E-11, 0.0E+00, -70.0);      {2017/09/22; Sherwen2016b;TS,JAS,SDE}
Cl + ETO2 = ClO + HO2 + ALD2 :               GCARR(7.4E-11, 0.0E+00, 0.0);        {2017/09/22; Sherwen2016b;TS,JAS,SDE}
Cl + OTHRO2 = ClO + HO2 + ALD2 :             GCARR(7.4E-11, 0.0E+00, 0.0);        {2019/05/10; Fisher2018; JAF}
Cl + MOH = HCl + CH2O + HO2 :                GCARR(5.5E-11, 0.0E+00, 0.0);        {2017/09/22; Sherwen2016b;TS,JAS,SDE}
Cl + EOH = HCl + ALD2 :                      GCARR(9.6E-11, 0.0E+00, 0.0);        {2017/09/22; Sherwen2016b;TS,JAS,SDE}
Cl + ACTA = HCl + MO2 + CO2 :                GCARR(2.8E-14, 0.0E+00, 0.0);        {2017/09/22; Sherwen2016b;TS,JAS,SDE}
Cl + C3H8 = HCl + B3O2 :                     GCARR(6.54E-11, 0.0E+00, 60.0);      {2017/09/22; Sherwen2016b;TS,JAS,SDE}
Cl + C3H8 = HCl + A3O2 :                     GCARR(8.12E-11, 0.0E+00, -90.0);     {2017/09/22; Sherwen2016b;TS,JAS,SDE}
Cl + ACET = HCl + ATO2 :                     GCARR(7.70E-11, 0.0E+00, -1000.0);   {2017/09/22; Sherwen2016b;TS,JAS,SDE}
Cl + ISOP = HCl + 0.5IHOO1 + 0.5IHOO4 :      GCARR(7.60E-11, 0.0E+00, 500.0);     {2019/11/06; Sherwen2016b;KHB,TS,JAS,SDE}
Cl + ALK4 = HCl + R4O2 :                     GCARR(2.05E-10, 0.0E+00, 0.0);       {2017/09/22; Sherwen2016b;TS,JAS,SDE}
Cl + PRPE {+M} = HCl + PO2 {+M} :            GCJPLPR(4.00E-28, 0.0E+00, 0.0, 2.8E-10, 0.0E0, 0.0, 0.6, 0.0, 0.0); {2017/09/22; Sherwen2016b;TS,JAS,SDE}
Br + PRPE = HBr + PO2 :                      GCARR(3.60E-12, 0.0E+00, 0.0);       {2017/09/22; Sherwen2016b;TS,JAS,SDE}
I + NO {+M} = INO {+M} :                     GCJPLPR(1.80E-32, 1.0E+00, 0.0, 1.77E-11, 0.0, 0.0, 0.6, 0.0, 0.0); {2017/09/22; Sherwen2016b;TS,JAS,SDE}
INO + INO = I2 + 2.000NO :                   GCARR(8.40E-11, 0.0E+00, -2620.0);   {2017/09/22; Sherwen2016b;TS,JAS,SDE}
I + NO2 {+M} = IONO {+M} :                   GCJPLPR(3.00E-31, 1.0E+00, 0.0, 6.6E-11, 0.0, 0.0, 0.63, 0.0, 0.0); {2017/09/22; Sherwen2016b;TS,JAS,SDE}
IONO {+M} = I + NO2 {+M} :                   GCARR(9.94E+17, 0.0E+00, -11859.0);  {2017/09/22; Sherwen2016b;TS,JAS,SDE}
IONO + IONO = I2 + 2.000NO2 :                GCARR(2.90E-11, 0.0E+00, -2600.0);   {2017/09/22; Sherwen2016b;TS,JAS,SDE}
I2 + NO3 = I + IONO2 :                       GCARR(1.50E-12, 0.0E+00, 0.0);       {2017/09/22; Sherwen2016b;TS,JAS,SDE}
IO + NO2 {+M} = IONO2 {+M} :                 GCJPLPR(7.50E-31, 3.5E+00, 0.0, 7.6E-12, 1.5E0, 0.0, 0.6, 0.0, 0.0); {2017/09/22; Sherwen2016b;TS,JAS,SDE}
IONO2 {+M} = IO + NO2 {+M} :                 GCARR(2.10E+15, 0.0E+00, -13670.0);  {2017/09/22; Sherwen2016b;TS,JAS,SDE}
IONO2 + I = I2 + NO3 :                       GCARR(9.10E-11, 0.0E+00, -146.0);    {2017/09/22; Sherwen2016b;TS,JAS,SDE}
I + BrO = IO + Br :                          GCARR(1.20E-11, 0.0E+00, 0.0);       {2017/09/22; Sherwen2016b;TS,JAS,SDE}
IO + BrO = Br + I + O2 :                     GCARR(3.00E-12, 0.0E+00, 510.0);     {2017/09/22; Sherwen2016b;TS,JAS,SDE}
IO + BrO = Br + OIO :                        GCARR(1.20E-11, 0.0E+00, 510.0);     {2017/09/22; Sherwen2016b;TS,JAS,SDE}
IO + OIO {+M} = I2O3 {+M} :                  GCARR(1.00E-10, 0.0E+00, 0.0);       {2017/09/22; Sherwen2016b;TS,JAS,SDE}
OIO + OIO = I2O4 :                           GCARR(1.50E-10, 0.0E+00, 0.0);       {2017/09/22; Sherwen2016b;TS,JAS,SDE}
I2O4 {+M} = 2.000OIO {+M} :                  GCARR(3.80E-02, 0.0E+00, 0.0);       {2017/09/22; Sherwen2016b;TS,JAS,SDE}
OIO + NO = IO + NO2 :                        GCARR(1.10E-12, 0.0E+00, 542.0);     {2017/09/22; Sherwen2016b;TS,JAS,SDE}
IO + ClO = I + OClO :                        GCARR(5.10E-12, 0.0E+00, 280.0);     {2017/09/22; Sherwen2016b;TS,JAS,SDE}
IO + ClO = I + Cl + O2 :                     GCARR(2.81E-12, 0.0E+00, 280.0);     {2017/09/22; Sherwen2016b;TS,JAS,SDE}
IO + ClO = ICl + O2 :                        GCARR(1.02E-12, 0.0E+00, 280.0);     {2017/09/22; Sherwen2016b;TS,JAS,SDE}
I + O3 = IO + O2 :                           GCARR(2.30E-11, 0.0E+00, -870.0);    {2017/09/22; Sherwen2016b;TS,JAS,SDE}
I + HO2 = HI + O2 :                          GCARR(1.50E-11, 0.0E+00, -1090.0);   {2017/09/22; Sherwen2016b;TS,JAS,SDE}
I2 + OH = HOI + I :                          GCARR(1.80E-10, 0.0E+00, 0.0);       {2017/09/22; Sherwen2016b;TS,JAS,SDE}
HI + OH = I + H2O :                          GCARR(3.00E-11, 0.0E+00, 0.0);       {2017/09/22; Sherwen2016b;TS,JAS,SDE}
HOI + OH = IO + H2O :                        GCARR(5.00E-12, 0.0E+00, 0.0);       {2017/09/22; Sherwen2016b;TS,JAS,SDE}
IO + HO2 = HOI + O2 :                        GCARR(1.30E-11, 0.0E+00, 570.0);     {2017/09/22; Sherwen2016b;TS,JAS,SDE}
IO + NO = I + NO2 :                          GCARR(9.10E-12, 0.0E+00, 240.0);     {2017/09/22; Sherwen2016b;TS,JAS,SDE}
IO + IO = I + OIO :                          GCARR(6.00E-12, 0.0E+00, 500.0);     {2017/09/22; Sherwen2016b;TS,JAS,SDE}
IO + IO {+M} = I2O2 {+M} :                   GCARR(9.00E-12, 0.0E+00, 500.0);     {2017/09/22; Sherwen2016b;TS,JAS,SDE}
I2O2 {+M} = 2.000IO {+M} :                   GCARR(1.00E+12, 0.0E+00, -9770.0);   {2017/09/22; Sherwen2016b;TS,JAS,SDE}
I2O2 {+M} = OIO + I {+M} :                   GCARR(2.50E+14, 0.0E+00, -9770.0);   {2017/09/22; Sherwen2016b;TS,JAS,SDE}
CH3I + OH = H2O + I + MO2 :                  GCARR(2.90E-12, 0.0E+00, -1100.0);   {2017/09/22; Sherwen2016b;TS,JAS,SDE}
ETHLN + OH = CH2O + CO2 + NO2 :              GCARR(2.40E-12, 0.0E+00, 0.0);       {2017/06/15, Marais2016, EAM}
PROPNN + OH = NO2 + MGLY :                   GCARR(6.70E-13, 0.0E+00, 0.0);       {2017/07/14; MCMv3.3; KRT,JAF,CCM,EAM,KHB,RHS}
CH2OO + CO = CH2O :                          GCARR(1.20E-15, 0.0E+00, 0.0);       {2015/09/25; Millet2015; DBM,EAM}
CH2OO + NO = CH2O + NO2 :                    GCARR(1.00E-14, 0.0E+00, 0.0);       {2015/09/25; Millet2015; DBM,EAM}
CH2OO + NO2 = CH2O + NO3 :                   GCARR(1.00E-15, 0.0E+00, 0.0);       {2015/09/25; Millet2015; DBM,EAM}
CH2OO + H2O = 0.730HMHP + 0.210HCOOH +
 0.060CH2O + 0.060H2O2 :                     GCARR(1.70E-15, 0.0E+00, 0.0);       {2019/11/06; Bates2019; KHB}
CH2OO + H2O + H2O = 0.400HMHP + 0.540HCOOH +
 0.060CH2O + 0.060H2O2 :                     GCARR(2.88E-35, 0.0E+00, 1391.0);    {2019/11/06; Bates2019; KHB}
CH2OO + O3 = CH2O :                          GCARR(1.40E-12, 0.0E+00, 0.0);       {2019/11/06; Bates2019; KHB}
CH2OO + SO2 = CH2O + SO4 :                   GCARR(3.70E-11, 0.0E+00, 0.0);       {2019/11/06; Bates2019; KHB}
CH3CHOO + CO = ALD2 :                        GCARR(1.20E-15, 0.0E+00, 0.0);       {2015/09/25; Millet2015; DBM,EAM}
CH3CHOO + NO = ALD2 + NO2 :                  GCARR(1.00E-14, 0.0E+00, 0.0);       {2015/09/25; Millet2015; DBM,EAM}
CH3CHOO + NO2 = ALD2 + NO3 :                 GCARR(1.00E-15, 0.0E+00, 0.0);       {2015/09/25; Millet2015; DBM,EAM}
CH3CHOO + SO2 = ALD2 + SO4 :                 GCARR(7.00E-14, 0.0E+00, 0.0);       {2015/09/25; Millet2015; DBM,EAM}
CH3CHOO + H2O = ALD2 + H2O2 :                GCARR(6.00E-18, 0.0E+00, 0.0);       {2015/09/25; Millet2015; DBM,EAM}
CH3CHOO + H2O = ACTA :                       GCARR(1.00E-17, 0.0E+00, 0.0);       {2015/09/25; Millet2015; DBM,EAM}
BENZ + OH = BRO2 + 1.920CH2O + 0.252GLYX +
 OH :                                        GCARR(2.33E-12, 0.0E+00, -193.0);    {2017/03/23; Fischer2014 ; EVF}
TOLU + OH = TRO2 + 1.920CH2O + 0.260GLYX +
 0.215MGLY + OH :                            GCARR(1.81E-12, 0.0E+00, 338.0);     {2017/03/23; Fischer2014 ; EVF}
XYLE + OH = XRO2 + 1.920CH2O + 0.268GLYX +
 0.463MGLY + OH :                            GCARR(2.31E-11, 0.0E+00, 0.0);       {2017/03/23; Fischer2014 ; EVF}
XYLE + NO3 = CO2 :                           GCARR(2.60E-16, 0.0E+00, 0.0);
BRO2 + HO2 = LBRO2H :                        GCARR(1.40E-12, 0.0E+00, 700.0);
BRO2 + NO = LBRO2N :                         GCARR(2.60E-12, 0.0E+00, 350.0);
TRO2 + HO2 = LTRO2H :                        GCARR(1.40E-12, 0.0E+00, 700.0);
TRO2 + NO = LTRO2N :                         GCARR(2.60E-12, 0.0E+00, 350.0);
XRO2 + HO2 = LXRO2H :                        GCARR(1.40E-12, 0.0E+00, 700.0);
XRO2 + NO = LXRO2N :                         GCARR(2.60E-12, 0.0E+00, 350.0);
MTPA + OH = PIO2 :                           GCARR(1.21E-11, 0.0E+00, 440.0);     {2017/03/23; IUPAC2010; EVF}
MTPO + OH = PIO2 :                           GCARR(1.21E-11, 0.0E+00, 440.0);     {2017/03/23; IUPAC2010; EVF}
PIO2 + NO = 0.820HO2 + 0.820NO2 +
 0.230CH2O + 0.430RCHO + 0.110ACET +
 0.440MEK + 0.070HCOOH + 0.120MONITS +
 0.060MONITU :                               GCARR(4.00E-12, 0.0E+00, 0.0);       {2017/07/14; Browne2014; KRT,JAF,CCM,EAM,KHB,RHS}
PIO2 + HO2 = PIP :                           GCARR(1.50E-11, 0.0E+00, 0.0);       {2017/03/23; Roberts1992; EVF}
PIO2 + MO2 = HO2 + 0.750CH2O + 0.250MOH +
 0.250ROH + 0.750RCHO + 0.750MEK :           GCARR(3.56E-14, 0.0E+00, 708.0);     {2017/07/14; Roberts1992; KRT,JAF,CCM,EAM,KHB,RHS}
PIO2 + MCO3 = 0.500HO2 + 0.500MO2 + RCHO +
 MEK + RCOOH :                               GCARR(7.40E-13, 0.0E+00, 765.0);     {2017/03/23; Roberts1992; EVF}
PIO2 + NO3 = HO2 + NO2 + RCHO + MEK :        GCARR(1.20E-12, 0.0E+00, 0.0);       {2017/03/23; Roberts1992; EVF}
MTPA + O3 = 0.850OH + 0.100HO2 +
 0.620KO2 + 0.140CO + 0.020H2O2 +
 0.650RCHO + 0.530MEK :                      GCARR(5.00E-16, 0.0E+00, -530.0);    {2017/07/14; Atkinson2003; KRT,JAF,CCM,EAM,KHB,RHS}
MTPO + O3 = 0.850OH + 0.100HO2 +
 0.620KO2 + 0.140CO + 0.020H2O2 +
 0.650RCHO + 0.530MEK :                      GCARR(5.00E-16, 0.0E+00, -530.0);    {2017/07/14; Atkinson2003; KRT,JAF,CCM,EAM,KHB,RHS}
MTPA + NO3 = 0.100OLNN + 0.900OLND :         GCARR(8.33E-13, 0.0E+00, 490.0);     {2017/07/14; Fisher2016; KRT,JAF,CCM,EAM,KHB,RHS}
MTPO + NO3 = 0.100OLNN + 0.900OLND :         GCARR(8.33E-13, 0.0E+00, 490.0);     {2017/07/14; Fisher2016; KRT,JAF,CCM,EAM,KHB,RHS}
LIMO + OH = LIMO2 :                          GCARR(4.20E-11, 0.0E+00, 401.0);     {2017/07/14; Gill2002; KRT,JAF,CCM,EAM,KHB,RHS}
LIMO + O3 = 0.850OH + 0.100HO2 +
 0.160OTHRO2 + 0.420KO2 + 0.020H2O2 +
 0.140CO + 0.460PRPE + 0.040CH2O +
 0.790MACR + 0.010HCOOH + 0.070RCOOH :       GCARR(2.95E-15, 0.0E+00, -783.0);    {2017/07/14; Atkinson2003; KRT,JAF,CCM,EAM,KHB,RHS}
LIMO + NO3 = 0.500OLNN + 0.500OLND :         GCARR(1.22E-11, 0.0E+00, 0.0);       {2017/07/14; Fry2014,Atkinson2003; KRT,JAF,CCM,EAM,KHB,RHS}
LIMO2 + NO = 0.686HO2 + 0.780NO2 +
 0.220MONITU + 0.289PRPE + 0.231CH2O +
 0.491RCHO + 0.058HAC + 0.289MEK :           GCARR(4.00E-12, 0.0E+00, 0.0);       {2017/07/14; Browne2014,Roberts1992; KRT,JAF,CCM,EAM,KHB,RHS}
LIMO2 + HO2 = PIP :                          GCARR(1.50E-11, 0.0E+00, 0.0);       {2017/07/14; Roberts1992; KRT,JAF,CCM,EAM,KHB,RHS}
LIMO2 + MO2 = HO2 + 0.192PRPE +
 1.040CH2O + 0.308MACR + 0.250MOH +
 0.250ROH :                                  GCARR(3.56E-14, 0.0E+00, 708.0);     {2017/07/14; Roberts1992; KRT,JAF,CCM,EAM,KHB,RHS}
LIMO2 + MCO3 = 0.500HO2 + 0.500MO2 +
 0.192PRPE + 0.385CH2O + 0.308MACR +
 0.500RCOOH :                                GCARR(7.40E-13, 0.0E+00, 765.0);     {2017/07/14; Roberts1992; KRT,JAF,CCM,EAM,KHB,RHS}
LIMO2 + NO3 = HO2 + NO2 + 0.385PRPE +
 0.385CH2O + 0.615MACR :                     GCARR(1.20E-12, 0.0E+00, 0.0);       {2017/07/14; Roberts1992; KRT,JAF,CCM,EAM,KHB,RHS}
PIP + OH = 0.490OH + 0.440R4O2 +
 0.080RCHO + 0.410MEK :                      GCARR(3.40E-12, 0.0E+00, 190.0);     {2017/07/14; Goliff2013; KRT,JAF,CCM,EAM,KHB,RHS}
OLNN + NO = HO2 + NO2 + MONITS :             GCARR(4.00E-12, 0.0E+00, 0.0);       {2017/07/14; Browne2014,Goliff2013; KRT,JAF,CCM,EAM,KHB,RHS}
OLND + NO = 2.000NO2 + 0.287CH2O +
 1.240RCHO + 0.464MEK :                      GCARR(4.00E-12, 0.0E+00, 0.0);       {2017/07/14; Goliff2013; KRT,JAF,CCM,EAM,KHB,RHS}
OLNN + HO2 = 0.700MONITS + 0.300MONITU :     GCARR(1.66E-13, 0.0E+00, 1300.0);    {2017/07/14; Browne2014,Roberts1992; KRT,JAF,CCM,EAM,KHB,RHS}
OLND + HO2 = 0.700MONITS + 0.300MONITU :     GCARR(1.66E-13, 0.0E+00, 1300.0);    {2017/07/14; Browne2014,Roberts1992; KRT,JAF,CCM,EAM,KHB,RHS}
OLNN + MO2 = 2.000HO2 + CH2O +
 0.700MONITS + 0.300MONITU :                 GCARR(1.60E-13, 0.0E+00, 708.0);     {2017/07/14; Browne2014,Roberts1992; KRT,JAF,CCM,EAM,KHB,RHS}
OLND + MO2 = 0.500HO2 + 0.500NO2 +
 0.965CH2O + 0.930RCHO + 0.348MEK +
 0.250MOH + 0.250ROH + 0.350MONITS +
 0.150MONITU :                               GCARR(9.68E-14, 0.0E+00, 708.0);     {2017/07/14; Browne2014,Roberts1992; KRT,JAF,CCM,EAM,KHB,RHS}
OLNN + MCO3 = HO2 + MO2 + 0.700MONITS +
 0.300MONITU :                               GCARR(8.85E-13, 0.0E+00, 765.0);     {2017/07/14; Browne2014,Roberts1992; KRT,JAF,CCM,EAM,KHB,RHS}
OLND + MCO3 = 0.500MO2 + NO2 + 0.287CH2O +
 1.240RCHO + 0.464MEK + 0.500RCOOH :         GCARR(5.37E-13, 0.0E+00, 765.0);     {2017/07/14; Browne2014,Roberts1992; KRT,JAF,CCM,EAM,KHB,RHS}
OLNN + NO3 = HO2 + NO2 + 0.700MONITS +
 0.300MONITU :                               GCARR(1.20E-12, 0.0E+00, 0.0);       {2017/07/14; Browne2014,Roberts1992; KRT,JAF,CCM,EAM,KHB,RHS}
OLND + NO3 = 2.000NO2 + 0.287CH2O +
 1.240RCHO + 0.464MEK :                      GCARR(1.20E-12, 0.0E+00, 0.0);       {2017/07/14; Browne2014,Roberts1992; KRT,JAF,CCM,EAM,KHB,RHS}
OLNN + OLNN = HO2 + 1.400MONITS +
 0.600MONITU :                               GCARR(7.00E-14, 0.0E+00, 1000.0);    {2017/07/14; Browne2014,Roberts1992; KRT,JAF,CCM,EAM,KHB,RHS}
OLNN + OLND = 0.500HO2 + 0.500NO2 +
 0.202CH2O + 0.640RCHO + 0.149MEK +
 1.050MONITS + 0.450MONITU :                 GCARR(4.25E-14, 0.0E+00, 1000.0);    {2017/07/14; Browne2014,Roberts1992; KRT,JAF,CCM,EAM,KHB,RHS}
OLND + OLND = NO2 + 0.504CH2O +
 1.210RCHO + 0.285MEK + 0.700MONITS +
 0.300MONITU :                               GCARR(2.96E-14, 0.0E+00, 1000.0);    {2017/07/14; Browne2014,Roberts1992; KRT,JAF,CCM,EAM,KHB,RHS}
MONITS + OH = HONIT :                        GCARR(4.80E-12, 0.0E+00, 0.0);       {2017/07/14; Browne2014; KRT,JAF,CCM,EAM,KHB,RHS}
MONITU + OH = HONIT :                        GCARR(7.29E-11, 0.0E+00, 0.0);       {2017/07/14; Browne2014; KRT,JAF,CCM,EAM,KHB,RHS}
MONITU + O3 = HONIT :                        GCARR(1.67E-16, 0.0E+00, 0.0);       {2017/07/14; Browne2014; KRT,JAF,CCM,EAM,KHB,RHS}
MONITU + NO3 = HONIT :                       GCARR(3.15E-13, 0.0E+00, -448.0);    {2017/07/14; Fisher2016; KRT,JAF,CCM,EAM,KHB,RHS}
MONITS + NO3 = HONIT :                       GCARR(3.15E-13, 0.0E+00, -448.0);    {2017/07/14; Fisher2016; KRT,JAF,CCM,EAM,KHB,RHS}
IONITA = INDIOL + HNO3 :                     GCARR(2.78E-04, 0.0E+00, 0.0);       {2017/07/14; Fisher2016; KRT,JAF,CCM,EAM,KHB,RHS}
MONITA = INDIOL + HNO3 :                     GCARR(2.78E-04, 0.0E+00, 0.0);       {2017/07/14; Fisher2016; KRT,JAF,CCM,EAM,KHB,RHS}
HONIT + OH = NO3 + HAC :                     GC_OHHNO3(2.41E-14, 0.0E+00, 460.0, 2.69E-17, 0.E0, 2199.0, 6.51E-34, 0.E0, 1335.0); {2017/07/14; Browne2014; KRT,JAF,CCM,EAM,KHB,RHS}
MENO3 + OH = CH2O + NO2 :                    GCARR(8.00E-13, 0.0E+00, -1000.0);   {2019/05/16; JPL 15-10,Fisher2018; JAF}
ETNO3 + OH = ALD2 + NO2 :                    GCARR(1.00E-12, 0.0E+00, -490.0);    {2019/05/16; JPL 15-10,Fisher2018; JAF}
IPRNO3 + OH = ACET + NO2 :                   GCARR(1.20E-12, 0.0E+00, -320.0);    {2019/05/16; JPL 15-10,Fisher2018; JAF}
NPRNO3 + OH = RCHO + NO2 :                   GCARR(7.10E-13, 0.0E+00, 0.0);       {2019/05/16; JPL 15-10,Fisher2018; JAF}
ISOP + O3 = 0.416MACR + 0.177MVK + 0.28OH +
 0.407CO2 + 0.407CO + 0.407MO2 + 0.16HO2 +
 0.58CH2OO + 0.827CH2O + 0.013H2O2 :         GCARR(1.3E-17, 0.0E+00, 0.0);        {2019/11/06; Bates2019; KHB}
ISOP + OH = LISOPOH + IHOO1 :                ISO1(1.7E-11,390.0,9.33E-2,5.05E15,-12200.0,1.79E14,-8830.0); {2019/11/06; Bates2019; KHB}
ISOP + OH = LISOPOH + IHOO4 :                ISO1(1.0E-11,390.0,2.26E-1,2.22E9,-7160.0,1.75E14,-9054.0); {2019/11/06; Bates2019; KHB}
ISOP + OH = 0.3MCO3 + 0.3MGLY + 0.3CH2O +
 0.15HPALD3 + 0.25HPALD1 + 0.4HO2 + 0.6CO +
 1.5OH + 0.3HPETHNL + LISOPOH :              ISO2(1.7E-11,390.0,9.33E-2,5.05E15,-12200.0,1.79E14,-8830.0); {2019/11/06; Bates2019; KHB}
ISOP + OH = 0.3CH2O + 0.15HPALD4 +
 0.25HPALD2 + 1.5OH + 0.9CO +
 0.7HO2 + 0.3MGLY + 0.3ATOOH + LISOPOH :     ISO2(1.0E-11,390.0,2.26E-1,2.22E9,-7160.0,1.75E14,-9054.0); {2019/11/06; Bates2019; KHB}
IHOO1 + HO2 = 0.063MVK + 0.063OH +
 0.063HO2 + 0.063CH2O + 0.937RIPA :          ARRPLUS(2.12E-13,-1300.0,0.0,1.1644,-7.0485E-4); {2019/11/06; Bates2019; KHB}
IHOO1 + HO2 = RIPC :                         ARRPLUS(2.12E-13,-1300.0,0.0,-0.1644,7.0485E-4); {2019/11/06; Bates2019; KHB}
IHOO4 + HO2 = 0.063MACR + 0.063OH +
 0.063HO2 + 0.063CH2O + 0.937RIPB :          ARRPLUS(2.12E-13,-1300.0,0.0,1.2038,-9.0435E-4); {2019/11/06; Bates2019; KHB}
IHOO4 + HO2 = RIPD :                         ARRPLUS(2.12E-13,-1300.0,0.0,-0.2038,9.0435E-4); {2019/11/06; Bates2019; KHB}
IHOO1 = CH2O + OH + MVK :                    ARRPLUS(1.04E11,9746.0,0.0,1.1644,-7.0485E-4); {2019/11/06; Bates2019; KHB}
IHOO1 = 0.15HPALD3 + 0.25HPALD1 + 0.4HO2 +
 0.6CO + 1.5OH + 0.3CH2O + 0.3MGLY +
 0.3HPETHNL + 0.3MCO3 :                      TUNPLUS(5.05E15,-12200.0,1.E8,-0.0128,5.1242E-5) ; {2019/11/06; Bates2019; KHB}
IHOO4 = MACR + OH + CH2O :                   ARRPLUS(1.88E11,9752.0,0.0,1.2038,-9.0435E-4); {2019/11/06; Bates2019; KHB}
IHOO4 = 0.15HPALD4 + 0.25HPALD2 + 1.5OH +
 0.3CH2O + 0.9CO + 0.7HO2 + 0.3MGLY +
 0.3ATOOH :                                  TUNPLUS(2.22E9,-7160.0,1.E8,-0.0306,1.1346E-4) ; {2019/11/06; Bates2019; KHB}
IHOO1 + IHOO1 = 2MVK + 2HO2 + 2CH2O :        ARRPLUS(6.92E-14,0.0,0.0,1.1644,-7.0485E-4) ; {2019/11/06; Bates2019; KHB}
IHOO4 + IHOO4 = 2MACR + 2HO2 + 2CH2O :       ARRPLUS(5.74E-12,0.0,0.0,1.2038,-9.0435E-4) ; {2019/11/06; Bates2019; KHB}
IHOO1 + IHOO4 = MACR + MVK + 2HO2 + 2CH2O :  ARRPLUS(1.54E-12,0.0,0.0,2.3682,-1.6092E-3) ; {2019/11/06; Bates2019; KHB}
IHOO1 + IHOO1 = HO2 + HC5A + CO + OH +
 MVKHP :                                     ARRPLUS(2.49E-12,0.0,0.0,-0.1644,7.0485E-4) ; {2019/11/06; Bates2019; KHB}
IHOO4 + IHOO4 = HO2 + HC5A + CO + OH +
 MCRHP :                                     ARRPLUS(3.94E-12,0.0,0.0,-0.2038,9.0435E-4) ; {2019/11/06; Bates2019; KHB}
IHOO1 + IHOO4 = HO2 + HC5A + CO + OH +
 0.5MVKHP + 0.5MCRHP :                       ARRPLUS(1.54E-12,0.0,0.0,-0.3682,1.6092E-3) ; {2019/11/06; Bates2019; KHB}
IHOO1 + MO2 = MVK + 2HO2 + 2CH2O :           ARRPLUS(2.0E-12,0.0,0.0,1.1644,-7.0485E-4); {2019/11/06; Bates2019; KHB}
IHOO1 + MO2 = CH2O + 0.5HC5A + 1.5HO2 +
 0.5MVKHP + 0.5CO + 0.5OH :                  ARRPLUS(2.0E-12,0.0,0.0,-0.1644,7.0485E-4); {2019/11/06; Bates2019; KHB}
IHOO4 + MO2 = MACR + 2HO2 + 2CH2O :          ARRPLUS(2.0E-12,0.0,0.0,1.2038,-9.0435E-4); {2019/11/06; Bates2019; KHB}
IHOO4 + MO2 = CH2O + 0.5HC5A + 1.5HO2 +
 0.5MCRHP + 0.5CO + 0.5OH :                  ARRPLUS(2.0E-12,0.0,0.0,-0.2038,9.0435E-4); {2019/11/06; Bates2019; KHB}
IHOO1 + NO = IHN2 :                          NIT(2.7E-12,350.0,1.19,6.0,1.1644,7.05E-4); {2019/11/06; Bates2019; KHB}
IHOO1 + NO = NO2 + MVK + HO2 + CH2O :        ALK(2.7E-12,350.0,1.19,6.0,1.1644,7.05E-4); {2019/11/06; Bates2019; KHB}
IHOO1 + NO = IHN4 :                          NIT(2.7E-12,350.0,1.421,6.0,-0.1644,-7.05E-4); {2019/11/06; Bates2019; KHB}
IHOO1 + NO = NO2 + 0.45HC5A + 0.45HO2 +
 0.55MVKHP + 0.55CO + 0.55OH :               ALK(2.7E-12,350.0,1.421,6.0,-0.1644,-7.05E-4); {2019/11/06; Bates2019; KHB}
IHOO4 + NO = IHN3 :                          NIT(2.7E-12,350.0,1.297,6.0,1.2038,9.04E-4); {2019/11/06; Bates2019; KHB}
IHOO4 + NO = NO2 + MACR + HO2 + CH2O :       ALK(2.7E-12,350.0,1.297,6.0,1.2038,9.04E-4); {2019/11/06; Bates2019; KHB}
IHOO4 + NO = IHN1 :                          NIT(2.7E-12,350.0,1.421,6.0,-0.2038,-9.04E-4); {2019/11/06; Bates2019; KHB}
IHOO4 + NO = NO2 + 0.45HO2 + 0.45HC5A +
 0.55MCRHP + 0.55CO + 0.55OH :               ALK(2.7E-12,350.0,1.421,6.0,-0.2038,-9.04E-4); {2019/11/06; Bates2019; KHB}
HPALD1 + OH = 0.035MVK + 0.315HPALD1OO +
 0.15IDC + 0.33MVKHP + 0.085HO2 +
 0.085CH2O + 0.085MGLY + 0.085ICHE +
 1.085OH + 0.45CO :                          GCARR(1.17E-11, 0.0E+00, 450.0);     {2019/11/06; Bates2019; KHB}
HPALD2 + OH = 0.035MACR + 0.315HPALD2OO +
 0.15IDC + 0.17MCRHP + 0.165HO2 +
 0.165CH2O + 0.165MGLY + 0.165ICHE +
 1.165OH + 0.37CO :                          GCARR(1.17E-11, 0.0E+00, 450.0);     {2019/11/06; Bates2019; KHB}
HPALD3 + OH = OH + 0.230MVK + 0.420CO +
 0.190MVKHP + 0.580ICHE :                    GCARR(2.20E-11, 0.0E+00, 390.0);     {2019/11/06; Bates2019; KHB}
HPALD4 + OH = OH + 0.770ICHE + 0.230CO +
 0.090MCRHP + 0.140MACR :                    GCARR(3.50E-11, 0.0E+00, 390.0);     {2019/11/06; Bates2019; KHB}
HC5A + OH = 1.065OH + 0.355CO2 + 0.638CO +
 0.355MGLY + 0.283HO2 + 0.294IEPOXAOO +
 0.125MVKHP + 0.158MCRHP + 0.068IEPOXBOO :   GCARR(4.64E-12, 0.0E+00, 650.0);     {2019/11/06; Bates2019; KHB}
ICHE + OH = OH + 1.5CO + 0.5CH2O +
 0.5MGLY + 0.5HAC :                          GCARR(9.85E-12, 0.0E+00, 410.0);     {2019/11/06; Bates2019; KHB}
IDC + OH = CO + HO2 + MVKPC :                GCARR(3.00E-12, 0.0E+00, 650.0);     {2019/11/06; Bates2019; KHB}
RIPA + OH = 0.655IHPOO3 + 0.345IHPOO1 +
 0.005LVOC :                                 GCARR(2.47E-12, 0.0E+00, 390.0);     {2019/11/06; Bates2019; KHB}
RIPA + OH = 0.67IEPOXA + 0.33IEPOXB +
 OH + 0.005LVOC :                            EPO(1.62E-11,390.0,4.77E-21);        {2019/11/06; Bates2019; KHB}
RIPB + OH = 0.655IHPOO3 + 0.345IHPOO2 +
 0.005LVOC :                                 GCARR(4.35E-12, 0.0E+00, 390.0);     {2019/11/06; Bates2019; KHB}
RIPB + OH = 0.68IEPOXA + 0.32IEPOXB +
 OH + 0.005LVOC :                            EPO(2.85E-11,390.0,4.77E-21);        {2019/11/06; Bates2019; KHB}
RIPA + OH = 0.75IHOO1 + 0.125MVK + 0.25CO +
 0.125MVKHP + 0.25HO2 + 0.005LVOC :          GCARR(6.10E-12, 0.0E+00, 200.0);     {2019/11/06; Bates2019; KHB}
RIPB + OH = 0.51IHOO4 + 0.16ICHOO +
 0.33CO + 0.33HO2 + 0.165MACR +
 0.165MCRHP + 0.005LVOC :                    GCARR(4.10E-12, 0.0E+00, 200.0);     {2019/11/06; Bates2019; KHB}
RIPC + OH = 0.595IHPOO1 + 0.03IHOO1 +
 0.06HC5A + 0.024HO2 + 0.009HPALD3 +
 0.015HPALD1 + 0.405OH + 0.036CO +
 0.018CH2O + 0.018MGLY + 0.018HPETHNL +
 0.018MCO3 + 0.255IEPOXD + 0.005LVOC :       GCARR(3.53E-11, 0.0E+00, 390.0);     {2019/11/06; Bates2019; KHB}
RIPD + OH = 0.255IHPOO2 + 0.03IHOO4 +
 0.745OH + 0.06HC5A + 0.009HPALD4 +
 0.015HPALD2 + 0.042HO2 + 0.018CH2O +
 0.054CO + 0.018MGLY + 0.018ATOOH +
 0.595IEPOXD + 0.005LVOC :                   GCARR(3.53E-11, 0.0E+00, 390.0);     {2019/11/06; Bates2019; KHB}
IHPOO1 = 0.176ICPDH + 0.824IDHPE + OH :      GCARR(1.59E+13, 0.0E+00, -10000.0);  {2019/11/06; Bates2019; KHB}
IHPOO1 + NO = 0.716MCRHP + 0.716CH2O +
 0.284HPETHNL + 0.284HAC + NO2 + HO2 :       ALK(2.7E-12,350.0,2.1,9.0,1.0,0.0);  {2019/11/06; Bates2019; KHB}
IHPOO1 + NO = ITHN :                         NIT(2.7E-12,350.0,2.1,9.0,1.0,0.0);  {2019/11/06; Bates2019; KHB}
IHPOO1 + HO2 = 0.725IDHDP + 0.14MCRHP +
 0.14CH2O + 0.135HPETHNL + 0.135HAC +
 0.275OH + 0.275HO2 :                        GCARR(2.47E-13, 0.0E+00, 1300.0);    {2019/11/06; Bates2019; KHB}
IHPOO2 = 0.548ICPDH + 0.452IDHPE + OH :      GCARR(2.91E+13, 0.0E+00, -10000.0);  {2019/11/06; Bates2019; KHB}
IHPOO2 + NO = 0.706MVKHP + 0.706CH2O +
 0.294GLYC + 0.294ATOOH + NO2 + HO2 :        ALK(2.7E-12,350.0,2.315,9.0,1.0,0.0); {2019/11/06; Bates2019; KHB}
IHPOO2 + NO = ITHN :                         NIT(2.7E-12,350.0,2.315,9.0,1.0,0.0); {2019/11/06; Bates2019; KHB}
IHPOO2 + HO2 = 0.725IDHDP + 0.14MVKHP +
 0.14CH2O + 0.135GLYC + 0.135ATOOH +
 0.275OH + 0.275HO2 :                        GCARR(2.47E-13, 0.0E+00, 1300.0);    {2019/11/06; Bates2019; KHB}
IHPOO3 = IDHPE :                             GCARR(1.875E+13, 0.0E+00, -10000.0); {2019/11/06; Bates2019; KHB}
IHPOO3 + NO = GLYC + HAC + NO2 + OH :        ALK(2.7E-12,350.0,3.079,9.0,1.0,0.0); {2019/11/06; Bates2019; KHB}
IHPOO3 + NO = ITHN :                         NIT(2.7E-12,350.0,3.079,9.0,1.0,0.0); {2019/11/06; Bates2019; KHB}
IHPOO3 + HO2 = 0.35IDHDP + 0.65GLYC + 
 0.65HAC + 1.3OH :                           GCARR(2.47E-13, 0.0E+00, 1300.0);    {2019/11/06; Bates2019; KHB}
IEPOXD + OH = 0.75ICHE + 0.75HO2 +
 0.25ICHOO :                                 GCARR(3.22E-11, 0.0E+00, -400.0);    {2019/11/06; Bates2019; KHB}
IEPOXA + OH = ICHE + HO2 :                   GCARR(1.05E-11, 0.0E+00, -400.0);    {2019/11/06; Bates2019; KHB}
IEPOXA + OH = 0.67IEPOXAOO + 0.33IEPOXBOO :  EPO(5.82E-11,-400.0,1.14E-20);       {2019/11/06; Bates2019; KHB}
IEPOXB + OH = ICHE + HO2 :                   GCARR(8.25E-12, 0.0E+00, -400.0);    {2019/11/06; Bates2019; KHB}
IEPOXB + OH = 0.81IEPOXAOO + 0.19IEPOXBOO :  EPO(3.75E-11,-400.0,8.91E-21); {2019/11/06; Bates2019; KHB}
IEPOXAOO = IDCHP + HO2 :                     GCARR(1.875E+13, 0.0E+00, -10000.0); {2019/11/06; Bates2019; KHB}
IEPOXAOO = OH + CO + MVKDH :                 GCARR(1.0E+7, 0.0E+00, -5000.0);     {2019/11/06; Bates2019; KHB}
IEPOXAOO + HO2 = 0.13CO + 0.65OH +
 0.65HO2 + 0.13MVKDH + 0.52GLYC +
 0.52MGLY + 0.35ICPDH :                      GCARR(2.38E-13, 0.0E+00, 1300.0);    {2019/11/06; Bates2019; KHB}
IEPOXAOO + NO = 0.2MVKDH + HO2 + NO2 +
 0.2CO + 0.8GLYC + 0.8MGLY :                 ALK(2.7E-12,350.0,13.098,8.0,1.0,0.0); {2019/11/06; Bates2019; KHB}
[...]
HI = ISALA :                                 HET(ind_HI,2);                       {2017/09/22; Sherwen2016b;TS,JAS,SDE}
HI = ISALC :                                 HET(ind_HI,3);                       {2017/09/22; Sherwen2016b;TS,JAS,SDE}
HOI = ISALA :                                HET(ind_HOI,1);                      {2017/09/22; Sherwen2016b;TS,JAS,SDE}
HOI = ISALC :                                HET(ind_HOI,2);                      {2017/09/22; Sherwen2016b;TS,JAS,SDE}
I2O2 = 2.000AERI :                           HET(ind_I2O2,1);                     {2017/09/22; Sherwen2016b;TS,JAS,SDE}
I2O2 = 2.000ISALA :                          HET(ind_I2O2,2);                     {2017/09/22; Sherwen2016b;TS,JAS,SDE}
I2O2 = 2.000ISALC :                          HET(ind_I2O2,3);                     {2017/09/22; Sherwen2016b;TS,JAS,SDE}
I2O3 = 2.000AERI :                           HET(ind_I2O3,1);                     {2017/09/22; Sherwen2016b;TS,JAS,SDE}
I2O3 = 2.000ISALA :                          HET(ind_I2O3,2);                     {2017/09/22; Sherwen2016b;TS,JAS,SDE}
I2O3 = 2.000ISALC :                          HET(ind_I2O3,3);                     {2017/09/22; Sherwen2016b;TS,JAS,SDE}
I2O4 = 2.000AERI :                           HET(ind_I2O4,1);                     {2017/09/22; Sherwen2016b;TS,JAS,SDE}
I2O4 = 2.000ISALA :                          HET(ind_I2O4,2);                     {2017/09/22; Sherwen2016b;TS,JAS,SDE}
I2O4 = 2.000ISALC :                          HET(ind_I2O4,3);                     {2017/09/22; Sherwen2016b;TS,JAS,SDE}
IONO = ISALA :                               HET(ind_IONO,1);                     {2017/09/22; Sherwen2016b;TS,JAS,SDE}
IONO = ISALC :                               HET(ind_IONO,2);                     {2017/09/22; Sherwen2016b;TS,JAS,SDE}
IONO2 = ISALA :                              HET(ind_IONO2,1);                    {2017/09/22; Sherwen2016b;TS,JAS,SDE}
IONO2 = ISALC :                              HET(ind_IONO2,2);                    {2017/09/22; Sherwen2016b;TS,JAS,SDE}
IONO = 0.850ICl + 0.150IBr + HNO2 :          HET(ind_IONO,3);                     {2017/09/22; Sherwen2016b;TS,JAS,SDE}
IONO2 = 0.850ICl + 0.150IBr + HNO3 :         HET(ind_IONO2,3);                    {2017/09/22; Sherwen2016b;TS,JAS,SDE}
HOI = 0.850ICl + 0.150IBr :                  HET(ind_HOI,3);                      {2017/09/22; Sherwen2016b;TS,JAS,SDE}
GLYX = SOAGX :                               HET(ind_GLYX,1);                     {2017/06/15; Marais2016, EAM}
MGLY = SOAGX :                               HET(ind_MGLY,1);                     {2017/06/15; Marais2016, EAM}
IEPOXA = SOAIE :                             HET(ind_IEPOXA,1);                   {2017/06/15; Marais2016, EAM}
IEPOXB = SOAIE :                             HET(ind_IEPOXB,1);                   {2017/06/15; Marais2016, EAM}
IEPOXD = SOAIE :                             HET(ind_IEPOXD,1);                   {2017/06/15; Marais2016, EAM}
LVOC = LVOCOA :                              HET(ind_LVOC,1);                     {2017/06/15; Marais2016, EAM}
MVKN = IONITA :                              HET(ind_MVKN,1);                     {2017/06/15; Marais2016, EAM}
R4N2 = IONITA :                              HET(ind_R4N2,1);                     {2017/06/15; Marais2016, EAM}
MONITS = MONITA :                            HET(ind_MONITS,1);                   {2017/07/14; Fisher2016; KRT,JAF,CCM,EAM,KHB,RHS}
MONITU = MONITA :                            HET(ind_MONITU,1);                   {2017/07/14; Fisher2016; KRT,JAF,CCM,EAM,KHB,RHS}
HONIT = MONITA :                             HET(ind_HONIT,1);                    {2017/07/14; Fisher2016; KRT,JAF,CCM,EAM,KHB,RHS}
PYAC = SOAGX :                               HET(ind_PYAC,1);                     {2019/11/06; Bates2019; KHB}
HMML = SOAIE :                               HET(ind_HMML,1);                     {2019/11/06; Bates2019; KHB}
IHN1 = IONITA :                              HET(ind_IHN1,1);                     {2019/11/06; Bates2019; KHB}
IHN2 = IONITA :                              HET(ind_IHN2,1);                     {2019/11/06; Bates2019; KHB}
IHN3 = IONITA :                              HET(ind_IHN3,1);                     {2019/11/06; Bates2019; KHB}
IHN4 = IONITA :                              HET(ind_IHN4,1);                     {2019/11/06; Bates2019; KHB}
ICHE = SOAIE :                               HET(ind_ICHE,1);                     {2019/11/06; Bates2019; KHB}
INPD = IONITA :                              HET(ind_INPD,1);                     {2019/11/06; Bates2019; KHB}
INPB = IONITA :                              HET(ind_INPB,1);                     {2019/11/06; Bates2019; KHB}
IDN = IONITA :                               HET(ind_IDN,1);                      {2019/11/06; Bates2019; KHB}
ITCN = IONITA :                              HET(ind_ITCN,1);                     {2019/11/06; Bates2019; KHB}
ITHN = IONITA :                              HET(ind_ITHN,1);                     {2019/11/06; Bates2019; KHB}
MCRHNB = IONITA :                            HET(ind_MCRHNB,1);                   {2019/11/06; Bates2019; KHB}
MCRHN = IONITA :                             HET(ind_MCRHN,1);                    {2019/11/06; Bates2019; KHB}
//
// Photolysis reactions
//
O3 + hv = O + O2 :                           PHOTOL(2);      {2014/02/03; Eastham2014; SDE}
O3 + hv = O1D + O2 :                         PHOTOL(3);      {2014/02/03; Eastham2014; SDE}
O2 + hv = 2.000O :                           PHOTOL(1);      {2014/02/03; Eastham2014; SDE}
NO2 + hv = NO + O :                          PHOTOL(11);     {2014/02/03; Eastham2014; SDE}
H2O2 + hv = OH + OH :                        PHOTOL(9);
MP + hv = CH2O + HO2 + OH :                  PHOTOL(10);
CH2O + hv = HO2 + H + CO :                   PHOTOL(7);      {2014/02/03; Eastham2014; SDE}
CH2O + hv = H2 + CO :                        PHOTOL(8);
HNO3 + hv = OH + NO2 :                       PHOTOL(16);
HNO2 + hv = OH + NO :                        PHOTOL(15);
HNO4 + hv = OH + NO3 :                       PHOTOL(17);
HNO4 + hv = HO2 + NO2 :                      PHOTOL(18);
NO3 + hv = NO2 + O :                         PHOTOL(12);     {2014/02/03; Eastham2014; SDE}
NO3 + hv = NO + O2 :                         PHOTOL(13);
N2O5 + hv = NO3 + NO2 :                      PHOTOL(14);
ALD2 + hv = 0.880MO2 + HO2 + 0.880CO +
 0.120MCO3 :                                 PHOTOL(61);     {2014/12/19; FAST-JX v7.0 fix; JMAO}
ALD2 + hv = CH4 + CO :                       PHOTOL(62);
PAN + hv = 0.700MCO3 + 0.700NO2 +
 0.300MO2 + 0.300NO3 :                       PHOTOL(59);     {2014/05/23; Eastham2014; JMAO,SDE}
RCHO + hv = 0.500OTHRO2 + HO2 + CO +
 0.070A3O2 + 0.270B3O2 :                     PHOTOL(70);     {2019/05/10; Fisher2018; JAF}
ACET + hv = MCO3 + MO2 :                     PHOTOL(76);
ACET + hv = 2.000MO2 + CO :                  PHOTOL(77);
MEK + hv = 0.850MCO3 + 0.425OTHRO2 +
 0.150MO2 + 0.150RCO3 + 0.060A3O2 +
 0.230B3O2 :                                 PHOTOL(69);     {2019/05/10; Fisher2018; JAF}
GLYC + hv = 0.900CH2O + 1.730HO2 + CO +
 0.070OH + 0.100MOH :                        PHOTOL(68);     {2014/05/23; Eastham2014; JMAO,SDE}
GLYX + hv = 2.000HO2 + 2.000CO :             PHOTOL(72);
GLYX + hv = H2 + 2.000CO :                   PHOTOL(73);
GLYX + hv = CH2O + CO :                      PHOTOL(74);
MGLY + hv = MCO3 + CO + HO2 :                PHOTOL(71);
MVK + hv = PRPE + CO :                       PHOTOL(63);
MVK + hv = MCO3 + CH2O + CO + HO2 :          PHOTOL(64);
MVK + hv = MO2 + RCO3 :                      PHOTOL(65);     {2014/05/23; Eastham2014; JMAO,SDE}
MACR + hv = CO + HO2 + CH2O + MCO3 :         PHOTOL(66);     {2014/05/23; Eastham2014; JMAO,SDE}
HAC + hv = MCO3 + CH2O + HO2 :               PHOTOL(75);
PRPN + hv = OH + HO2 + RCHO + NO2 :          PHOTOL(79);
ETP + hv = OH + HO2 + ALD2 :                 PHOTOL(80);
RA3P + hv = OH + HO2 + RCHO :                PHOTOL(81);
RB3P + hv = OH + HO2 + ACET :                PHOTOL(82);
R4P + hv = OH + HO2 + RCHO :                 PHOTOL(83);
PP + hv = OH + HO2 + ALD2 + CH2O :           PHOTOL(84);
RP + hv = OH + HO2 + ALD2 :                  PHOTOL(85);
R4N2 + hv = NO2 + 0.320ACET + 0.190MEK +
 0.180MO2 + 0.270HO2 + 0.320ALD2 +
 0.130RCHO + 0.050A3O2 + 0.180B3O2 +
 0.320OTHRO2 :                               PHOTOL(98);
MAP + hv = OH + MO2 :                        PHOTOL(99);
Br2 + hv = 2.000Br :                         PHOTOL(23);     {2012/06/07; Parrella2012; JPP}
BrO + hv = Br + O :                          PHOTOL(28);     {2014/02/03; Eastham2014; SDE}
HOBr + hv = Br + OH :                        PHOTOL(32);     {2012/06/07; Parrella2012; JPP}
BrNO3 + hv = Br + NO3 :                      PHOTOL(29);     {2012/06/07; Parrella2012; JPP}
BrNO3 + hv = BrO + NO2 :                     PHOTOL(30);     {2012/06/07; Parrella2012; JPP}
BrNO2 + hv = Br + NO2 :                      PHOTOL(31);     {2012/06/07; Parrella2012; JPP}
CHBr3 + hv = 3.000Br :                       PHOTOL(56);     {2012/06/07; Parrella2012; JPP}
CH2Br2 + hv = 2.000Br :                      PHOTOL(55);     {2014/02/03; Eastham2014; SDE}
CH3Br + hv = MO2 + Br :                      PHOTOL(50);     {2014/02/03; Eastham2014; SDE}
CH3Cl + hv = MO2 + Cl :                      PHOTOL(43);     {2014/02/03; Eastham2014; SDE}
CH2Cl2 + hv = 2.000Cl :                      PHOTOL(45);     {2017/09/22; Sherwen2016b;TS,JAS,SDE}
BrCl + hv = Br + Cl :                        PHOTOL(33);     {2014/02/03; Eastham2014; SDE}
Cl2 + hv = 2.000Cl :                         PHOTOL(22);     {2014/02/03; Eastham2014; SDE}
ClO + hv = Cl + O :                          PHOTOL(27);     {2014/02/03; Eastham2014; SDE}
OClO + hv = ClO + O :                        PHOTOL(25);     {2014/02/03; Eastham2014; SDE}
Cl2O2 + hv = Cl + ClOO :                     PHOTOL(26);     {2014/02/03; Eastham2014; SDE}
ClNO2 + hv = Cl + NO2 :                      PHOTOL(21);     {2014/02/03; Eastham2014; SDE}
ClNO3 + hv = Cl + NO3 :                      PHOTOL(19);     {2014/02/03; Eastham2014; SDE}
ClNO3 + hv = ClO + NO2 :                     PHOTOL(20);     {2014/02/03; Eastham2014; SDE}
HOCl + hv = Cl + OH :                        PHOTOL(24);     {2014/02/03; Eastham2014; SDE}
CH3CCl3 + hv = 3.000Cl :                     PHOTOL(44);     {2014/02/03; Eastham2014; SDE}
CCl4 + hv = 4.000Cl :                        PHOTOL(42);     {2014/02/03; Eastham2014; SDE}
CFC11 + hv = 3.000Cl :                       PHOTOL(37);     {2014/02/03; Eastham2014; SDE}
CFC12 + hv = 2.000Cl :                       PHOTOL(38);     {2014/02/03; Eastham2014; SDE}
CFC113 + hv = 3.000Cl :                      PHOTOL(39);     {2014/02/03; Eastham2014; SDE}
CFC114 + hv = 2.000Cl :                      PHOTOL(40);     {2014/02/03; Eastham2014; SDE}
CFC115 + hv = Cl :                           PHOTOL(41);     {2014/02/03; Eastham2014; SDE}
HCFC123 + hv = 2.000Cl :                     PHOTOL(47);     {2014/02/03; Eastham2014; SDE}
HCFC141b + hv = 2.000Cl :                    PHOTOL(48);     {2014/02/03; Eastham2014; SDE}
HCFC142b + hv = Cl :                         PHOTOL(49);     {2014/02/03; Eastham2014; SDE}
HCFC22 + hv = Cl :                           PHOTOL(46);     {2014/02/03; Eastham2014; SDE}
H1301 + hv = Br :                            PHOTOL(53);     {2014/02/03; Eastham2014; SDE}
H1211 + hv = Cl + Br :                       PHOTOL(51);     {2014/02/03; Eastham2014; SDE}
H2402 + hv = 2.000Br :                       PHOTOL(54);     {2014/02/03; Eastham2014; SDE}
ClOO + hv = Cl + O2 :                        PHOTOL(101);    {2014/02/03; Eastham2014; SDE}
I2 + hv = 2.000I :                           PHOTOL(114);    {2017/09/22; Sherwen2016b;TS,JAS,SDE}
HOI + hv = I + OH :                          PHOTOL(115);    {2017/09/22; Sherwen2016b;TS,JAS,SDE}
IO + hv = I + O :                            PHOTOL(116);    {2017/09/22; Sherwen2016b;TS,JAS,SDE}
OIO + hv = I + O2 :                          PHOTOL(117);    {2017/09/22; Sherwen2016b;TS,JAS,SDE}
INO + hv = I + NO :                          PHOTOL(118);    {2017/09/22; Sherwen2016b;TS,JAS,SDE}
IONO + hv = I + NO2 :                        PHOTOL(119);    {2017/09/22; Sherwen2016b;TS,JAS,SDE}
IONO2 + hv = I + NO3 :                       PHOTOL(120);    {2017/09/22; Sherwen2016b;TS,JAS,SDE}
I2O2 + hv = I + OIO :                        PHOTOL(121);    {2017/09/22; Sherwen2016b;TS,JAS,SDE}
CH3I + hv = I :                              PHOTOL(122);    {2017/09/22; Sherwen2016b;TS,JAS,SDE}
CH2I2 + hv = 2.000I :                        PHOTOL(123);    {2017/09/22; Sherwen2016b;TS,JAS,SDE}
CH2ICl + hv = I + Cl :                       PHOTOL(124);    {2017/09/22; Sherwen2016b;TS,JAS,SDE}
CH2IBr + hv = I + Br :                       PHOTOL(125);    {2017/09/22; Sherwen2016b;TS,JAS,SDE}
I2O4 + hv = 2.000OIO :                       PHOTOL(126);    {2017/09/22; Sherwen2016b;TS,JAS,SDE}
I2O3 + hv = OIO + IO :                       PHOTOL(127);    {2017/09/22; Sherwen2016b;TS,JAS,SDE}
IBr + hv = I + Br :                          PHOTOL(128);    {2017/09/22; Sherwen2016b;TS,JAS,SDE}
ICl + hv = I + Cl :                          PHOTOL(129);    {2017/09/22; Sherwen2016b;TS,JAS,SDE}
MPN + hv = CH2O + NO3 + HO2 :                PHOTOL(103);    {2012/02/12; Browne2011; ECB}
MPN + hv = MO2 + NO2 :                       PHOTOL(104);    {2012/02/12; Browne2011; ECB}
ATOOH + hv = OH + CH2O + MCO3 :              PHOTOL(97);     {2013/03/22; Paulot2009; FP,EAM,JMAO,MJE}
N2O + hv = N2 + O1D :                        PHOTOL(36);     {2014/02/03; Eastham2014; SDE}
OCS + hv = SO2 + CO :                        PHOTOL(34);     {2014/02/03; Eastham2014; SDE}
SO4 + hv = SO2 + 2.000OH :                   PHOTOL(100);    {2014/02/03; Eastham2014; SDE}
NO + hv = O + N :                            PHOTOL(6);      {2014/02/03; Eastham2014; SDE}
PIP + hv = RCHO + OH + HO2 :                 PHOTOL(105);    {2017/03/23; Fischer2014; EVF}
ETHLN + hv = NO2 + CH2O + CO + HO2 :         PHOTOL(107);    {2017/06/15; Marais2016; EAM}
MONITS + hv = MEK + NO2 :                    PHOTOL(111);    {2017/07/14; Browne2014; KRT,JAF,CCM,EAM,KHB,RHS}
MONITU + hv = RCHO + NO2 :                   PHOTOL(112);    {2017/07/14; Browne2014; KRT,JAF,CCM,EAM,KHB,RHS}
HONIT + hv = HAC + NO2 :                     PHOTOL(113);    {2017/07/14; Browne2014; KRT,JAF,CCM,EAM,KHB,RHS}
NITs + hv = HNO2 :                           PHOTOL(130);    {2018/07/19; Kasibhatla2018; PK, TMS}
NITs + hv = NO2 :                            PHOTOL(131);    {2018/07/19; Kasibhatla2018; PK, TMS}
NIT + hv = HNO2 :                            PHOTOL(132);    {2018/07/19; Kasibhatla2018; PK, TMS}
NIT + hv = NO2 :                             PHOTOL(133);    {2018/07/19; Kasibhatla2018; PK, TMS}
MENO3 + hv = NO2 + HO2 + CH2O :              PHOTOL(134);    {2019/07/11; Fisher2018; JAF}
ETNO3 + hv = NO2 + HO2 + ALD2 :              PHOTOL(135);    {2019/07/11; Fisher2018; JAF}
IPRNO3 + hv = NO2 + HO2 + ACET :             PHOTOL(136);    {2019/07/11; Fisher2018; JAF}
NPRNO3 + hv = NO2 + HO2 + RCHO :             PHOTOL(137);    {2019/07/11; Fisher2018; JAF}
HMHP + hv = 2OH + CH2O :                     PHOTOL(86);     {2019/11/06; Bates2019; KHB}
HPETHNL + hv = OH + CO + HO2 + CH2O :        PHOTOL(87);     {2019/11/06; Bates2019; KHB}
PYAC + hv = MCO3 + CO2 + HO2 :               PHOTOL(88);     {2019/11/06; Bates2019; KHB}
PROPNN + hv = NO2 + CH2O + MCO3 :            PHOTOL(89);     {2019/11/06; Bates2019; KHB}
MVKHC + hv = CO + HO2 + CH2O + MCO3 :        PHOTOL(90);     {2019/11/06; Bates2019; KHB}
MVKHCB + hv = 0.5GLYX + 1.5HO2 + 0.5MCO3 +
 0.5CO + 0.5MGLY :                           PHOTOL(91);     {2019/11/06; Bates2019; KHB}
MVKHP + hv = 0.53MCO3 + 0.53GLYC + OH +
 0.47HO2 + 0.47CH2O + 0.47MGLY :             PHOTOL(92);     {2019/11/06; Bates2019; KHB}
MVKPC + hv = OH + 0.571CO + 0.571MGLY +
 0.571HO2 + 0.429GLYX + 0.429MCO3 :          PHOTOL(93);     {2019/11/06; Bates2019; KHB}
MCRENOL + hv = 0.875CO + 0.75PYAC +
 1.75OH + 0.125MGLY + 0.125HO2 +
 0.125MCO3 + 0.125GLYX :                     PHOTOL(94);     {2019/11/06; Bates2019; KHB}
MCRHP + hv = OH + 0.77CO + HO2 + 0.77HAC +
 0.23MGLY + 0.23CH2O :                       PHOTOL(95);     {2019/11/06; Bates2019; KHB}
MACR1OOH + hv = 0.75OH + 1.238CO2 +
 0.488MO2 + 0.75CH2O + 0.262MCO3 +
 0.25MACR1OOH :                              PHOTOL(96);     {2019/11/06; Bates2019; KHB}
MVKN + hv = 0.290HO2 + 0.010OH + 0.700NO2 + 
 1.010MCO3 + 0.690GLYC + 0.300ETHLN :        PHOTOL(108);    {2019/11/06; Bates2019; KHB} 
MCRHN + hv = HAC + CO + HO2 + NO2 :          PHOTOL(109);    {2019/11/06; Bates2019; KHB}
MCRHNB + hv = PROPNN + OH + CO + HO2 :       PHOTOL(110);    {2019/11/06; Bates2019; KHB}
RIPA + hv = MVK + CH2O + HO2 + OH :          PHOTOL(138);    {2019/11/06; Bates2019; KHB}
RIPB + hv = MACR + CH2O + HO2 + OH :         PHOTOL(139);    {2019/11/06; Bates2019; KHB}
RIPC + hv = OH + HO2 + HC5A :                PHOTOL(140);    {2019/11/06; Bates2019; KHB}
RIPD + hv = OH + HO2 + HC5A :                PHOTOL(141);    {2019/11/06; Bates2019; KHB}
HPALD1 + hv = 0.888CO + 1.662OH +
 0.112HO2 + 0.112IDC + 0.112MVKPC +
 0.552MCRENOL + 0.224C4HVP1 :                PHOTOL(142);    {2019/11/06; Bates2019; KHB}  
HPALD2 + hv = 0.818CO + 1.637OH +
 0.182HO2 + 0.182IDC + 0.182MVKPC +
 0.455MCRENOL + 0.182C4HVP2 :                PHOTOL(143);    {2019/11/06; Bates2019; KHB}  
HPALD3 + hv = CO + OH + HO2 + MVK :          PHOTOL(144);    {2019/11/06; Bates2019; KHB}
HPALD4 + hv = CO + OH + HO2 + MACR :         PHOTOL(145);    {2019/11/06; Bates2019; KHB}
IHN1 + hv = NO2 + 0.45HC5A + 0.45HO2 +
0.55MVKHP + 0.55CO + 0.55OH :                PHOTOL(146);    {2019/11/06; Bates2019; KHB}
IHN2 + hv = NO2 + MVK + HO2 + CH2O :         PHOTOL(147);    {2019/11/06; Bates2019; KHB}
IHN3 + hv = NO2 + MACR + HO2 + CH2O :        PHOTOL(148);    {2019/11/06; Bates2019; KHB}
IHN4 + hv = NO2 + 0.45HC5A + 0.45HO2 +
 0.55MCRHP + 0.55CO + 0.55OH :               PHOTOL(149);    {2019/11/06; Bates2019; KHB}
INPB + hv = NO2 + CH2O + 0.097MACR +
 0.903MVK + 0.67OH + 0.33HO2 :               PHOTOL(150);    {2019/11/06; Bates2019; KHB}
INPD + hv = OH + 0.159HO2 + 0.159ICN +
 0.841INA :                                  PHOTOL(151);    {2019/11/06; Bates2019; KHB}
INPD + hv = NO2 + 0.841IHOO1 + 0.159IHOO4 :  PHOTOL(152);    {2019/11/06; Bates2019; KHB}
ICN + hv = NO2 + 0.839CO + 0.645OH +
 0.161HO2 + 0.161IDC + 0.162MVKPC +
 0.481MCRENOL + 0.128C4HVP2 + 0.068C4HVP1 :  PHOTOL(106);    {2019/11/06; Bates2019; KHB}
IDN + hv = 1.555NO2 + 0.5GLYC + 0.5HAC +
 0.05MVK + 0.005MACR + 0.055CH2O +
 0.227INA + 0.228ICN + 0.228HO2 :            PHOTOL(78);    {2019/11/06; Bates2019; KHB}
ICPDH + hv = CO + 1.5HO2 + 0.5OH +
 0.5MCRHP + 0.35MVKDH + 0.15MCRDH :          PHOTOL(153);    {2019/11/06; Bates2019; KHB}
ICPDH + hv = OH + HO2 + 0.122CO + 0.1CH2O +
 0.1MVKHCB + 0.438HAC + 0.438GLYX +
 0.088GLYC + 0.088MGLY + 0.122MCRDH :        PHOTOL(154);    {2019/11/06; Bates2019; KHB}
IDHDP + hv = 1.25OH + 0.25GLYC + 0.25HAC +
 0.75ICPDH + 0.75HO2 :                       PHOTOL(155);    {2019/11/06; Bates2019; KHB}
IDHPE + hv = OH + HO2 + 0.429MGLY +
 0.429GLYC + 0.571GLYX + 0.571HAC :          PHOTOL(156);    {2019/11/06; Bates2019; KHB}
IDCHP + hv = 0.546OH + CO + 1.454HO2 +
 0.391MVKHC + 0.155MVKHCB + 0.454MVKPC :     PHOTOL(157);    {2019/11/06; Bates2019; KHB}
ITHN + hv = OH + 0.7HO2 + 0.55CH2O +
 0.5MCRHN + 0.3GLYC + 0.45HAC + 0.3NO2 +
 0.15ETHLN + 0.05MVKN :                      PHOTOL(158);    {2019/11/06; Bates2019; KHB}
ITHN + hv = NO2 + 0.8HAC + 0.7HO2 +
 0.5HPETHNL + 0.35GLYC + 0.15CH2O +
 0.15MCRHP + 0.05ATOOH + 0.3OH :             PHOTOL(159);    {2019/11/06; Bates2019; KHB}
ITCN + hv = MGLY + OH + NO2 + GLYC :         PHOTOL(160);    {2019/11/06; Bates2019; KHB}
ITCN + hv = 0.5MVKHP + 0.5MCRHP + CO +
 NO2 + HO2 :                                 PHOTOL(161);    {2019/11/06; Bates2019; KHB}