Contact:
GEOS-Chem Support Team
Washington University in St. Louis